# Generated by REPEAT Assigner based on pymatgen
data_DB0-m2_o1_o3_f0_nbo.sym.92
_audit_creation_date              2022-05-24
_audit_creation_method            REPEAT_Assigner
_cell_length_a                    21.525416
_cell_length_b                    21.525416
_cell_length_c                    38.571045
_cell_angle_alpha                 90.000000
_cell_angle_beta                  90.000000
_cell_angle_gamma                 90.000000
_cell_volume                      17871.643496
_symmetry_space_group_name_H-M    P1
_symmetry_Int_Tables_number       1
loop_
    _symmetry_equiv_pos_site_id
    _symmetry_equiv_pos_as_xyz
    1  x,y,z
loop_
    _atom_site_type_symbol
    _atom_site_label
    _atom_site_fract_x
    _atom_site_fract_y
    _atom_site_fract_z
    _atom_type_partial_charge
    O   O1    0.588441  0.051090  0.509905  -0.541011
    O   O2    0.948910  0.588441  0.509905  -0.541019
    O   O3    0.411559  0.948910  0.509905  -0.541029
    O   O4    0.051090  0.411559  0.509905  -0.541017
    O   O5    0.588441  0.948910  0.490095  -0.541025
    O   O6    0.948910  0.411559  0.490095  -0.541027
    O   O7    0.411559  0.051090  0.490095  -0.541005
    O   O8    0.051090  0.588441  0.490095  -0.541016
    O   O9    0.088441  0.551090  0.009905  -0.541025
    O   O10   0.448910  0.088441  0.009905  -0.541034
    O   O11   0.911559  0.448910  0.009905  -0.540993
    O   O12   0.551090  0.911559  0.009905  -0.541039
    O   O13   0.088441  0.448910  0.990095  -0.540996
    O   O14   0.448910  0.911559  0.990095  -0.541012
    O   O15   0.911559  0.551090  0.990095  -0.541027
    O   O16   0.551090  0.088441  0.990095  -0.541009
    C   C1    0.617509  0.000000  0.500000  0.668121
    C   C2    0.000000  0.617509  0.500000  0.668100
    C   C3    0.382491  0.000000  0.500000  0.668099
    C   C4    0.000000  0.382491  0.500000  0.668098
    C   C5    0.117509  0.500000  0.000000  0.668122
    C   C6    0.500000  0.117509  0.000000  0.668125
    C   C7    0.882491  0.500000  0.000000  0.668116
    C   C8    0.500000  0.882491  0.000000  0.668141
    O   O17   0.482370  0.051107  0.549473  -0.553826
    O   O18   0.948894  0.482370  0.549473  -0.553828
    O   O19   0.517630  0.948894  0.549473  -0.553832
    O   O20   0.051107  0.517630  0.549473  -0.553835
    O   O21   0.482370  0.948893  0.450527  -0.553829
    O   O22   0.948893  0.517630  0.450527  -0.553831
    O   O23   0.517630  0.051107  0.450527  -0.553824
    O   O24   0.051107  0.482370  0.450527  -0.553828
    O   O25   0.982370  0.551106  0.049473  -0.553828
    O   O26   0.448893  0.982370  0.049473  -0.553816
    O   O27   0.017630  0.448893  0.049473  -0.553818
    O   O28   0.551107  0.017630  0.049473  -0.553822
    O   O29   0.982370  0.448893  0.950527  -0.553815
    O   O30   0.448893  0.017630  0.950527  -0.553812
    O   O31   0.017630  0.551106  0.950527  -0.553830
    O   O32   0.551107  0.982370  0.950527  -0.553831
    C   C9    0.500000  0.000000  0.565754  0.564472
    C   C10   0.000000  0.500000  0.565754  0.564469
    C   C11   0.500000  0.000000  0.434246  0.564443
    C   C12   0.000000  0.500000  0.434246  0.564441
    C   C13   0.000000  0.500000  0.065754  0.564446
    C   C14   0.500000  0.000000  0.065754  0.564492
    C   C15   0.000000  0.500000  0.934246  0.564500
    C   C16   0.500000  0.000000  0.934246  0.564452
    Cu  Cu1   0.500000  0.060616  0.500000  0.898326
    Cu  Cu2   0.939384  0.500000  0.500000  0.898292
    Cu  Cu3   0.500000  0.939384  0.500000  0.898270
    Cu  Cu4   0.060616  0.500000  0.500000  0.898297
    Cu  Cu5   0.000000  0.560616  0.000000  0.898271
    Cu  Cu6   0.439384  0.000000  0.000000  0.898326
    Cu  Cu7   0.000000  0.439384  0.000000  0.898341
    Cu  Cu8   0.560616  0.000000  0.000000  0.898296
    C   C17   0.554667  0.991120  0.878177  -0.120357
    C   C18   0.008880  0.554667  0.878177  -0.120348
    C   C19   0.445333  0.008880  0.878177  -0.120361
    C   C20   0.991120  0.445333  0.878177  -0.120344
    C   C21   0.554667  0.008880  0.121823  -0.120349
    C   C22   0.008880  0.445333  0.121823  -0.120359
    C   C23   0.445333  0.991120  0.121823  -0.120347
    C   C24   0.991120  0.554667  0.121823  -0.120365
    C   C25   0.054667  0.491120  0.378177  -0.120352
    C   C26   0.508880  0.054667  0.378177  -0.120350
    C   C27   0.945333  0.508880  0.378177  -0.120352
    C   C28   0.491120  0.945333  0.378177  -0.120350
    C   C29   0.054667  0.508880  0.621823  -0.120342
    C   C30   0.508880  0.945333  0.621823  -0.120342
    C   C31   0.945333  0.491120  0.621823  -0.120342
    C   C32   0.491120  0.054667  0.621823  -0.120337
    H   H1    0.598186  0.984727  0.891668  0.127840
    H   H2    0.015273  0.598186  0.891668  0.127834
    H   H3    0.401814  0.015273  0.891668  0.127839
    H   H4    0.984727  0.401814  0.891668  0.127833
    H   H5    0.598186  0.015273  0.108332  0.127833
    H   H6    0.015273  0.401814  0.108332  0.127838
    H   H7    0.401814  0.984727  0.108332  0.127835
    H   H8    0.984727  0.598186  0.108332  0.127839
    H   H9    0.098186  0.484727  0.391668  0.127834
    H   H10   0.515273  0.098186  0.391668  0.127836
    H   H11   0.901814  0.515273  0.391668  0.127834
    H   H12   0.484727  0.901814  0.391668  0.127835
    H   H13   0.098186  0.515273  0.608332  0.127830
    H   H14   0.515273  0.901814  0.608332  0.127830
    H   H15   0.901814  0.484727  0.608332  0.127830
    H   H16   0.484727  0.098186  0.608332  0.127832
    C   C33   0.554720  0.991464  0.842444  -0.151252
    C   C34   0.008535  0.554720  0.842444  -0.151248
    C   C35   0.445280  0.008535  0.842444  -0.151248
    C   C36   0.991465  0.445280  0.842444  -0.151250
    C   C37   0.554720  0.008535  0.157556  -0.151251
    C   C38   0.008535  0.445280  0.157556  -0.151245
    C   C39   0.445280  0.991464  0.157556  -0.151253
    C   C40   0.991465  0.554720  0.157556  -0.151242
    C   C41   0.054720  0.491465  0.342444  -0.151253
    C   C42   0.508535  0.054720  0.342444  -0.151254
    C   C43   0.945280  0.508535  0.342444  -0.151254
    C   C44   0.491465  0.945280  0.342444  -0.151256
    C   C45   0.054720  0.508535  0.657556  -0.151258
    C   C46   0.508536  0.945280  0.657556  -0.151257
    C   C47   0.945280  0.491464  0.657556  -0.151256
    C   C48   0.491465  0.054720  0.657556  -0.151266
    H   H17   0.598486  0.986291  0.829057  0.110230
    H   H18   0.013709  0.598486  0.829057  0.110229
    H   H19   0.401514  0.013709  0.829057  0.110230
    H   H20   0.986291  0.401514  0.829057  0.110230
    H   H21   0.598486  0.013709  0.170943  0.110232
    H   H22   0.013709  0.401514  0.170943  0.110229
    H   H23   0.401514  0.986291  0.170943  0.110230
    H   H24   0.986291  0.598486  0.170943  0.110229
    H   H25   0.098486  0.486291  0.329057  0.110229
    H   H26   0.513709  0.098486  0.329057  0.110230
    H   H27   0.901514  0.513709  0.329057  0.110230
    H   H28   0.486291  0.901514  0.329057  0.110232
    H   H29   0.098486  0.513709  0.670943  0.110232
    H   H30   0.513709  0.901514  0.670943  0.110231
    H   H31   0.901514  0.486291  0.670943  0.110230
    H   H32   0.486291  0.098486  0.670943  0.110233
    C   C49   0.500000  0.000000  0.824243  0.092650
    C   C50   0.000000  0.500000  0.824243  0.092662
    C   C51   0.500000  0.000000  0.175757  0.092655
    C   C52   0.000000  0.500000  0.175757  0.092663
    C   C53   0.000000  0.500000  0.324243  0.092671
    C   C54   0.500000  0.000000  0.324243  0.092666
    C   C55   0.000000  0.500000  0.675757  0.092666
    C   C56   0.500000  0.000000  0.675757  0.092670
    C   C57   0.500000  0.000000  0.896256  0.040371
    C   C58   0.000000  0.500000  0.896256  0.040334
    C   C59   0.500000  0.000000  0.103744  0.040341
    C   C60   0.000000  0.500000  0.103744  0.040364
    C   C61   0.000000  0.500000  0.396256  0.040355
    C   C62   0.500000  0.000000  0.396256  0.040358
    C   C63   0.000000  0.500000  0.603744  0.040342
    C   C64   0.500000  0.000000  0.603744  0.040341
    C   C65   0.460952  0.039207  0.767865  -0.137548
    C   C66   0.960793  0.460952  0.767865  -0.137554
    C   C67   0.539048  0.960793  0.767865  -0.137551
    C   C68   0.039207  0.539048  0.767865  -0.137543
    C   C69   0.460952  0.960793  0.232135  -0.137538
    C   C70   0.960793  0.539048  0.232135  -0.137541
    C   C71   0.539048  0.039207  0.232135  -0.137545
    C   C72   0.039207  0.460952  0.232135  -0.137548
    C   C73   0.960952  0.539207  0.267865  -0.137547
    C   C74   0.460793  0.960952  0.267865  -0.137551
    C   C75   0.039048  0.460793  0.267865  -0.137539
    C   C76   0.539207  0.039048  0.267865  -0.137542
    C   C77   0.960952  0.460793  0.732135  -0.137528
    C   C78   0.460793  0.039048  0.732135  -0.137539
    C   C79   0.039048  0.539207  0.732135  -0.137541
    C   C80   0.539207  0.960952  0.732135  -0.137533
    H   H33   0.430718  0.071282  0.781243  0.110516
    H   H34   0.928718  0.430717  0.781243  0.110515
    H   H35   0.569283  0.928718  0.781243  0.110517
    H   H36   0.071282  0.569282  0.781243  0.110514
    H   H37   0.430718  0.928718  0.218757  0.110516
    H   H38   0.928718  0.569282  0.218757  0.110512
    H   H39   0.569282  0.071282  0.218757  0.110515
    H   H40   0.071282  0.430717  0.218757  0.110514
    H   H41   0.930717  0.571282  0.281243  0.110514
    H   H42   0.428718  0.930717  0.281243  0.110517
    H   H43   0.069282  0.428718  0.281243  0.110512
    H   H44   0.571282  0.069282  0.281243  0.110515
    H   H45   0.930718  0.428718  0.718757  0.110510
    H   H46   0.428718  0.069283  0.718758  0.110515
    H   H47   0.069283  0.571282  0.718757  0.110512
    H   H48   0.571282  0.930718  0.718757  0.110512
    C   C81   0.500000  0.000000  0.713925  0.069489
    C   C82   0.000000  0.500000  0.713925  0.069497
    C   C83   0.500000  0.000000  0.286075  0.069502
    C   C84   0.000000  0.500000  0.286075  0.069502
    C   C85   0.000000  0.500000  0.213925  0.069508
    C   C86   0.500000  0.000000  0.213925  0.069496
    C   C87   0.000000  0.500000  0.786075  0.069507
    C   C88   0.500000  0.000000  0.786075  0.069511
    C   C89   0.717523  0.962190  0.477446  -0.200527
    C   C90   0.037810  0.717523  0.477446  -0.200519
    C   C91   0.282477  0.037810  0.477446  -0.200517
    C   C92   0.962190  0.282477  0.477446  -0.200514
    C   C93   0.717523  0.037810  0.522554  -0.200511
    C   C94   0.037810  0.282477  0.522554  -0.200513
    C   C95   0.282477  0.962190  0.522554  -0.200534
    C   C96   0.962190  0.717523  0.522554  -0.200519
    C   C97   0.217523  0.462190  0.977446  -0.200551
    C   C98   0.537810  0.217523  0.977446  -0.200538
    C   C99   0.782477  0.537810  0.977446  -0.200542
    C   C100  0.462190  0.782477  0.977446  -0.200532
    C   C101  0.217523  0.537810  0.022554  -0.200537
    C   C102  0.537810  0.782477  0.022554  -0.200531
    C   C103  0.782477  0.462190  0.022554  -0.200548
    C   C104  0.462190  0.217523  0.022554  -0.200539
    H   H49   0.692804  0.932697  0.459453  0.103484
    H   H50   0.067303  0.692804  0.459453  0.103484
    H   H51   0.307196  0.067303  0.459453  0.103482
    H   H52   0.932697  0.307196  0.459453  0.103484
    H   H53   0.692804  0.067303  0.540547  0.103482
    H   H54   0.067303  0.307196  0.540547  0.103485
    H   H55   0.307196  0.932697  0.540547  0.103487
    H   H56   0.932697  0.692804  0.540547  0.103484
    H   H57   0.192804  0.432697  0.959453  0.103494
    H   H58   0.567303  0.192804  0.959453  0.103491
    H   H59   0.807196  0.567303  0.959453  0.103494
    H   H60   0.432697  0.807196  0.959453  0.103493
    H   H61   0.192804  0.567303  0.040547  0.103492
    H   H62   0.567303  0.807196  0.040547  0.103494
    H   H63   0.807196  0.432697  0.040547  0.103492
    H   H64   0.432697  0.192804  0.040547  0.103492
    C   C105  0.781493  0.963680  0.476456  0.034909
    C   C106  0.036320  0.781493  0.476456  0.034877
    C   C107  0.218507  0.036320  0.476456  0.034874
    C   C108  0.963680  0.218507  0.476456  0.034871
    C   C109  0.781493  0.036320  0.523544  0.034867
    C   C110  0.036320  0.218507  0.523544  0.034863
    C   C111  0.218507  0.963680  0.523544  0.034906
    C   C112  0.963680  0.781493  0.523544  0.034874
    C   C113  0.281493  0.463680  0.976456  0.034947
    C   C114  0.536320  0.281493  0.976456  0.034898
    C   C115  0.718507  0.536320  0.976456  0.034906
    C   C116  0.463680  0.718507  0.976456  0.034898
    C   C117  0.281493  0.536320  0.023544  0.034902
    C   C118  0.536320  0.718507  0.023544  0.034901
    C   C119  0.718507  0.463680  0.023544  0.034940
    C   C120  0.463680  0.281493  0.023544  0.034902
    C   C121  0.814096  0.000000  0.500000  -0.000497
    C   C122  0.000000  0.814096  0.500000  -0.000494
    C   C123  0.185904  0.000000  0.500000  -0.000504
    C   C124  0.000000  0.185904  0.500000  -0.000463
    C   C125  0.314096  0.500000  0.000000  -0.000559
    C   C126  0.500000  0.314096  0.000000  -0.000543
    C   C127  0.685904  0.500000  0.000000  -0.000554
    C   C128  0.500000  0.685904  0.000000  -0.000526
    C   C129  0.685375  0.000000  0.500000  0.058784
    C   C130  0.000000  0.685375  0.500000  0.058794
    C   C131  0.314625  0.000000  0.500000  0.058801
    C   C132  0.000000  0.314625  0.500000  0.058791
    C   C133  0.185375  0.500000  0.000000  0.058794
    C   C134  0.500000  0.185375  0.000000  0.058812
    C   C135  0.814625  0.500000  0.000000  0.058797
    C   C136  0.500000  0.814625  0.000000  0.058794
    O   O33   0.018513  0.088506  0.471694  -0.386454
    O   O34   0.911494  0.018513  0.471694  -0.386434
    O   O35   0.981487  0.911494  0.471694  -0.386452
    O   O36   0.088506  0.981487  0.471694  -0.386445
    O   O37   0.018513  0.911494  0.528306  -0.386456
    O   O38   0.911494  0.981487  0.528306  -0.386444
    O   O39   0.981487  0.088506  0.528306  -0.386453
    O   O40   0.088506  0.018513  0.528306  -0.386435
    O   O41   0.518513  0.588506  0.971694  -0.386471
    O   O42   0.411494  0.518513  0.971694  -0.386463
    O   O43   0.481487  0.411494  0.971694  -0.386469
    O   O44   0.588506  0.481487  0.971694  -0.386464
    O   O45   0.518513  0.411494  0.028306  -0.386450
    O   O46   0.411494  0.481487  0.028306  -0.386443
    O   O47   0.481487  0.588506  0.028306  -0.386456
    O   O48   0.588506  0.518513  0.028306  -0.386441
    C   C137  0.000000  0.117752  0.500000  0.370479
    C   C138  0.882248  0.000000  0.500000  0.370470
    C   C139  0.000000  0.882248  0.500000  0.370487
    C   C140  0.117752  0.000000  0.500000  0.370475
    C   C141  0.500000  0.617752  0.000000  0.370514
    C   C142  0.382248  0.500000  0.000000  0.370517
    C   C143  0.500000  0.382248  0.000000  0.370516
    C   C144  0.617752  0.500000  0.000000  0.370513
    Cu  Cu9   0.000000  0.000000  0.466342  0.736478
    Cu  Cu10  0.000000  0.000000  0.533658  0.736480
    Cu  Cu11  0.500000  0.500000  0.966342  0.736507
    Cu  Cu12  0.500000  0.500000  0.033658  0.736556
    C   C145  0.813429  0.922969  0.451908  0.231602
    C   C146  0.812768  0.859726  0.457208  -0.148877
    C   C147  0.843464  0.820722  0.434647  0.041207
    Cl  Cl1   0.845560  0.740687  0.442629  -0.103867
    C   C148  0.872633  0.844787  0.405831  -0.083058
    C   C149  0.870894  0.907796  0.399571  -0.099856
    C   C150  0.840916  0.946781  0.422449  -0.266140
    H   H65   0.788234  0.840880  0.479181  0.112707
    H   H66   0.896474  0.814217  0.388022  0.094303
    H   H67   0.893148  0.926665  0.376766  0.116525
    H   H68   0.839171  0.996029  0.417333  0.144232
    C   C151  0.077031  0.813429  0.451908  0.231639
    C   C152  0.140274  0.812768  0.457208  -0.148890
    C   C153  0.179278  0.843464  0.434647  0.041215
    Cl  Cl2   0.259313  0.845560  0.442629  -0.103869
    C   C154  0.155213  0.872633  0.405831  -0.083064
    C   C155  0.092204  0.870894  0.399571  -0.099835
    C   C156  0.053219  0.840916  0.422449  -0.266187
    H   H69   0.159120  0.788234  0.479181  0.112709
    H   H70   0.185783  0.896474  0.388022  0.094305
    H   H71   0.073335  0.893148  0.376766  0.116519
    H   H72   0.003971  0.839171  0.417333  0.144259
    C   C157  0.186571  0.077031  0.451908  0.231647
    C   C158  0.187232  0.140274  0.457208  -0.148891
    C   C159  0.156536  0.179278  0.434647  0.041212
    Cl  Cl3   0.154440  0.259313  0.442629  -0.103867
    C   C160  0.127367  0.155213  0.405831  -0.083064
    C   C161  0.129106  0.092204  0.399571  -0.099829
    C   C162  0.159084  0.053219  0.422449  -0.266194
    H   H73   0.211766  0.159120  0.479181  0.112712
    H   H74   0.103526  0.185783  0.388022  0.094304
    H   H75   0.106852  0.073335  0.376766  0.116517
    H   H76   0.160829  0.003971  0.417333  0.144258
    C   C163  0.922969  0.186571  0.451908  0.231558
    C   C164  0.859726  0.187232  0.457208  -0.148835
    C   C165  0.820722  0.156536  0.434647  0.041180
    Cl  Cl4   0.740687  0.154440  0.442629  -0.103869
    C   C166  0.844787  0.127367  0.405831  -0.083003
    C   C167  0.907796  0.129105  0.399571  -0.099982
    C   C168  0.946781  0.159084  0.422449  -0.266048
    H   H77   0.840880  0.211766  0.479181  0.112702
    H   H78   0.814217  0.103526  0.388022  0.094303
    H   H79   0.926665  0.106852  0.376766  0.116560
    H   H80   0.996029  0.160829  0.417333  0.144225
    C   C169  0.813429  0.077031  0.548092  0.231646
    C   C170  0.812768  0.140274  0.542792  -0.148887
    C   C171  0.843464  0.179278  0.565353  0.041212
    Cl  Cl5   0.845560  0.259313  0.557371  -0.103866
    C   C172  0.872633  0.155213  0.594169  -0.083065
    C   C173  0.870894  0.092204  0.600429  -0.099835
    C   C174  0.840916  0.053219  0.577551  -0.266190
    H   H81   0.788234  0.159120  0.520819  0.112712
    H   H82   0.896474  0.185783  0.611978  0.094305
    H   H83   0.893148  0.073335  0.623234  0.116519
    H   H84   0.839171  0.003971  0.582667  0.144257
    C   C175  0.077031  0.186571  0.548092  0.231559
    C   C176  0.140274  0.187232  0.542792  -0.148835
    C   C177  0.179278  0.156536  0.565353  0.041181
    Cl  Cl6   0.259313  0.154440  0.557371  -0.103867
    C   C178  0.155213  0.127367  0.594169  -0.083003
    C   C179  0.092204  0.129105  0.600429  -0.099986
    C   C180  0.053219  0.159084  0.577551  -0.266043
    H   H85   0.159120  0.211766  0.520819  0.112703
    H   H86   0.185783  0.103526  0.611978  0.094302
    H   H87   0.073335  0.106852  0.623234  0.116560
    H   H88   0.003971  0.160829  0.582667  0.144224
    C   C181  0.186571  0.922969  0.548092  0.231601
    C   C182  0.187232  0.859726  0.542792  -0.148874
    C   C183  0.156536  0.820722  0.565353  0.041206
    Cl  Cl7   0.154440  0.740687  0.557371  -0.103865
    C   C184  0.127367  0.844787  0.594169  -0.083056
    C   C185  0.129106  0.907796  0.600429  -0.099862
    C   C186  0.159084  0.946781  0.577551  -0.266130
    H   H89   0.211766  0.840880  0.520819  0.112708
    H   H90   0.103526  0.814217  0.611978  0.094303
    H   H91   0.106852  0.926665  0.623234  0.116527
    H   H92   0.160829  0.996029  0.582667  0.144228
    C   C187  0.922969  0.813429  0.548092  0.231638
    C   C188  0.859726  0.812768  0.542792  -0.148883
    C   C189  0.820722  0.843464  0.565353  0.041212
    Cl  Cl8   0.740687  0.845560  0.557371  -0.103868
    C   C190  0.844787  0.872633  0.594169  -0.083066
    C   C191  0.907796  0.870894  0.600429  -0.099841
    C   C192  0.946781  0.840916  0.577551  -0.266182
    H   H93   0.840880  0.788234  0.520819  0.112711
    H   H94   0.814217  0.896474  0.611978  0.094306
    H   H95   0.926665  0.893148  0.623234  0.116521
    H   H96   0.996029  0.839171  0.582667  0.144254
    C   C193  0.313429  0.422969  0.951908  0.231569
    C   C194  0.312768  0.359726  0.957208  -0.148871
    C   C195  0.343464  0.320722  0.934647  0.041210
    Cl  Cl9   0.345560  0.240687  0.942629  -0.103865
    C   C196  0.372633  0.344787  0.905831  -0.083043
    C   C197  0.370894  0.407796  0.899571  -0.099867
    C   C198  0.340916  0.446781  0.922449  -0.266094
    H   H97   0.288234  0.340880  0.979181  0.112701
    H   H98   0.396474  0.314217  0.888022  0.094303
    H   H99   0.393148  0.426665  0.876766  0.116524
    H   H100  0.339171  0.496029  0.917333  0.144210
    C   C199  0.577031  0.313429  0.951908  0.231626
    C   C200  0.640274  0.312768  0.957208  -0.148889
    C   C201  0.679278  0.343464  0.934647  0.041221
    Cl  Cl10  0.759313  0.345560  0.942629  -0.103870
    C   C202  0.655213  0.372633  0.905831  -0.083057
    C   C203  0.592204  0.370894  0.899571  -0.099837
    C   C204  0.553219  0.340916  0.922449  -0.266161
    H   H101  0.659120  0.288234  0.979181  0.112707
    H   H102  0.685783  0.396474  0.888022  0.094303
    H   H103  0.573335  0.393148  0.876766  0.116516
    H   H104  0.503971  0.339171  0.917333  0.144246
    C   C205  0.686571  0.577031  0.951908  0.231622
    C   C206  0.687232  0.640274  0.957208  -0.148895
    C   C207  0.656536  0.679278  0.934647  0.041219
    Cl  Cl11  0.654440  0.759313  0.942629  -0.103867
    C   C208  0.627367  0.655213  0.905831  -0.083049
    C   C209  0.629106  0.592204  0.899571  -0.099841
    C   C210  0.659084  0.553219  0.922449  -0.266156
    H   H105  0.711766  0.659120  0.979181  0.112705
    H   H106  0.603526  0.685783  0.888022  0.094303
    H   H107  0.606852  0.573335  0.876766  0.116517
    H   H108  0.660829  0.503971  0.917333  0.144244
    C   C211  0.422969  0.686571  0.951908  0.231530
    C   C212  0.359726  0.687232  0.957208  -0.148830
    C   C213  0.320722  0.656536  0.934647  0.041182
    Cl  Cl12  0.240687  0.654440  0.942629  -0.103867
    C   C214  0.344787  0.627367  0.905831  -0.082985
    C   C215  0.407796  0.629105  0.899571  -0.099986
    C   C216  0.446781  0.659084  0.922449  -0.266005
    H   H109  0.340880  0.711766  0.979181  0.112696
    H   H110  0.314217  0.603526  0.888022  0.094298
    H   H111  0.426665  0.606852  0.876766  0.116555
    H   H112  0.496029  0.660829  0.917333  0.144210
    C   C217  0.313429  0.577031  0.048092  0.231625
    C   C218  0.312768  0.640274  0.042792  -0.148897
    C   C219  0.343464  0.679278  0.065353  0.041222
    Cl  Cl13  0.345560  0.759313  0.057371  -0.103866
    C   C220  0.372633  0.655213  0.094169  -0.083050
    C   C221  0.370894  0.592204  0.100429  -0.099842
    C   C222  0.340916  0.553219  0.077551  -0.266159
    H   H113  0.288234  0.659120  0.020819  0.112702
    H   H114  0.396474  0.685783  0.111978  0.094303
    H   H115  0.393148  0.573335  0.123234  0.116518
    H   H116  0.339171  0.503971  0.082667  0.144246
    C   C223  0.577031  0.686571  0.048092  0.231531
    C   C224  0.640274  0.687232  0.042792  -0.148834
    C   C225  0.679278  0.656536  0.065353  0.041189
    Cl  Cl14  0.759313  0.654440  0.057371  -0.103871
    C   C226  0.655213  0.627367  0.094169  -0.082991
    C   C227  0.592204  0.629105  0.100429  -0.099989
    C   C228  0.553219  0.659084  0.077551  -0.266006
    H   H117  0.659120  0.711766  0.020819  0.112695
    H   H118  0.685783  0.603526  0.111978  0.094301
    H   H119  0.573335  0.606852  0.123234  0.116558
    H   H120  0.503971  0.660829  0.082667  0.144210
    C   C229  0.686571  0.422969  0.048092  0.231575
    C   C230  0.687232  0.359726  0.042792  -0.148875
    C   C231  0.656536  0.320722  0.065353  0.041212
    Cl  Cl15  0.654440  0.240687  0.057371  -0.103865
    C   C232  0.627367  0.344787  0.094169  -0.083044
    C   C233  0.629106  0.407796  0.100429  -0.099867
    C   C234  0.659084  0.446781  0.077551  -0.266104
    H   H121  0.711766  0.340880  0.020819  0.112699
    H   H122  0.603526  0.314217  0.111978  0.094303
    H   H123  0.606852  0.426665  0.123234  0.116526
    H   H124  0.660829  0.496029  0.082667  0.144215
    C   C235  0.422969  0.313429  0.048092  0.231630
    C   C236  0.359726  0.312768  0.042792  -0.148897
    C   C237  0.320722  0.343464  0.065353  0.041230
    Cl  Cl16  0.240687  0.345560  0.057371  -0.103874
    C   C238  0.344787  0.372633  0.094169  -0.083063
    C   C239  0.407796  0.370894  0.100429  -0.099841
    C   C240  0.446781  0.340916  0.077551  -0.266165
    H   H125  0.340880  0.288234  0.020819  0.112704
    H   H126  0.314217  0.396474  0.111978  0.094305
    H   H127  0.426665  0.393148  0.123234  0.116519
    H   H128  0.496029  0.339171  0.082667  0.144249
