# Generated by REPEAT Assigner based on pymatgen
data_DB0-m2_o1_o3_f0_nbo.sym.63_sqe
_audit_creation_date              2022-05-24
_audit_creation_method            REPEAT_Assigner
_cell_length_a                    21.479383
_cell_length_b                    21.479383
_cell_length_c                    38.493819
_cell_angle_alpha                 90.000000
_cell_angle_beta                  90.000000
_cell_angle_gamma                 90.000000
_cell_volume                      17759.657947
_symmetry_space_group_name_H-M    P1
_symmetry_Int_Tables_number       1
loop_
    _symmetry_equiv_pos_site_id
    _symmetry_equiv_pos_as_xyz
    1  x,y,z
loop_
    _atom_site_type_symbol
    _atom_site_label
    _atom_site_fract_x
    _atom_site_fract_y
    _atom_site_fract_z
    _atom_type_partial_charge
    O   O1    0.588651  0.051267  0.490129  -0.637532
    O   O2    0.948729  0.588649  0.490144  -0.637481
    O   O3    0.411352  0.948734  0.490136  -0.637428
    O   O4    0.051273  0.411353  0.490137  -0.637559
    O   O5    0.588649  0.948724  0.509839  -0.637418
    O   O6    0.948728  0.411352  0.509847  -0.637386
    O   O7    0.411358  0.051282  0.509845  -0.637498
    O   O8    0.051276  0.588646  0.509852  -0.637521
    O   O9    0.088643  0.551282  0.990151  -0.637500
    O   O10   0.448728  0.088647  0.990152  -0.637516
    O   O11   0.911350  0.448721  0.990153  -0.637471
    O   O12   0.551268  0.911349  0.990161  -0.637366
    O   O13   0.088647  0.448734  0.009859  -0.637512
    O   O14   0.448722  0.911355  0.009869  -0.637615
    O   O15   0.911350  0.551265  0.009864  -0.637589
    O   O16   0.551274  0.088647  0.009861  -0.637520
    C   C1    0.617636  0.000002  0.499995  0.941595
    C   C2    0.000006  0.617632  0.499995  0.941660
    C   C3    0.382371  0.000008  0.499992  0.941654
    C   C4    0.000002  0.382368  0.499996  0.941526
    C   C5    0.117629  0.500007  0.000003  0.941707
    C   C6    0.500000  0.117632  0.000006  0.941727
    C   C7    0.882364  0.499997  0.000001  0.941805
    C   C8    0.499989  0.882367  0.000004  0.941567
    O   O17   0.517639  0.051241  0.549566  -0.612274
    O   O18   0.948754  0.517618  0.549576  -0.612076
    O   O19   0.482380  0.948755  0.549568  -0.612139
    O   O20   0.051246  0.482364  0.549573  -0.612224
    O   O21   0.517616  0.948756  0.450408  -0.612029
    O   O22   0.948759  0.482384  0.450416  -0.612098
    O   O23   0.482368  0.051252  0.450410  -0.612142
    O   O24   0.051251  0.517635  0.450417  -0.612226
    O   O25   0.017630  0.551251  0.049586  -0.612172
    O   O26   0.448750  0.017641  0.049589  -0.612235
    O   O27   0.982379  0.448757  0.049586  -0.612084
    O   O28   0.551241  0.982385  0.049592  -0.612059
    O   O29   0.017621  0.448754  0.950427  -0.612083
    O   O30   0.448752  0.982363  0.950434  -0.612256
    O   O31   0.982366  0.551244  0.950429  -0.612253
    O   O32   0.551245  0.017612  0.950431  -0.612101
    C   C9    0.500011  0.999998  0.565879  0.618782
    C   C10   0.000000  0.499985  0.565884  0.618789
    C   C11   0.499978  0.000000  0.434103  0.618546
    C   C12   0.000002  0.500019  0.434107  0.618744
    C   C13   0.000017  0.500000  0.065893  0.618766
    C   C14   0.499999  0.000026  0.065899  0.618869
    C   C15   0.999993  0.499999  0.934117  0.618712
    C   C16   0.500000  0.999978  0.934123  0.618760
    Cu  Cu1   0.500006  0.060783  0.499987  0.995767
    Cu  Cu2   0.939220  0.500000  0.499996  0.995593
    Cu  Cu3   0.499999  0.939219  0.499988  0.995579
    Cu  Cu4   0.060784  0.499999  0.499995  0.995784
    Cu  Cu5   0.999996  0.560782  0.000007  0.995764
    Cu  Cu6   0.439216  0.000001  0.000012  0.995826
    Cu  Cu7   0.999999  0.439219  0.000007  0.995590
    Cu  Cu8   0.560779  0.999997  0.000012  0.995558
    C   C17   0.555445  0.003474  0.877955  -0.039372
    C   C18   0.996539  0.555445  0.877952  -0.039529
    C   C19   0.444556  0.996540  0.877957  -0.039326
    C   C20   0.003472  0.444554  0.877952  -0.039601
    C   C21   0.555452  0.996533  0.122055  -0.039551
    C   C22   0.996533  0.444551  0.122051  -0.039616
    C   C23   0.444559  0.003464  0.122054  -0.039374
    C   C24   0.003467  0.555441  0.122051  -0.039610
    C   C25   0.055442  0.503465  0.377948  -0.039631
    C   C26   0.496534  0.055441  0.377948  -0.039705
    C   C27   0.944551  0.496533  0.377947  -0.039770
    C   C28   0.503467  0.944550  0.377946  -0.039836
    C   C29   0.055445  0.496538  0.622046  -0.039403
    C   C30   0.496525  0.944556  0.622047  -0.039557
    C   C31   0.944555  0.503471  0.622047  -0.039508
    C   C32   0.503458  0.055446  0.622045  -0.039465
    H   H1    0.599404  0.005975  0.891514  0.101399
    H   H2    0.994039  0.599404  0.891519  0.101369
    H   H3    0.400599  0.994038  0.891521  0.101305
    H   H4    0.005972  0.400596  0.891516  0.101425
    H   H5    0.599415  0.994046  0.108488  0.101415
    H   H6    0.994040  0.400587  0.108487  0.101409
    H   H7    0.400600  0.005967  0.108483  0.101323
    H   H8    0.005967  0.599400  0.108485  0.101408
    H   H9    0.099402  0.505967  0.391516  0.101411
    H   H10   0.494030  0.099400  0.391513  0.101425
    H   H11   0.900589  0.494041  0.391512  0.101474
    H   H12   0.505955  0.900586  0.391510  0.101496
    H   H13   0.099403  0.494038  0.608480  0.101321
    H   H14   0.494026  0.900598  0.608483  0.101408
    H   H15   0.900595  0.505971  0.608485  0.101411
    H   H16   0.505960  0.099405  0.608477  0.101349
    C   C33   0.555456  0.002508  0.842139  -0.161321
    C   C34   0.997508  0.555455  0.842138  -0.160759
    C   C35   0.444545  0.997513  0.842141  -0.160687
    C   C36   0.002502  0.444544  0.842137  -0.160962
    C   C37   0.555458  0.997492  0.157869  -0.161060
    C   C38   0.997497  0.444543  0.157866  -0.160971
    C   C39   0.444546  0.002487  0.157865  -0.160644
    C   C40   0.002494  0.555455  0.157863  -0.160724
    C   C41   0.055455  0.502489  0.342136  -0.160636
    C   C42   0.497508  0.055456  0.342136  -0.160703
    C   C43   0.944543  0.497494  0.342132  -0.160913
    C   C44   0.502507  0.944542  0.342132  -0.160941
    C   C45   0.055455  0.497510  0.657861  -0.160735
    C   C46   0.497496  0.944545  0.657862  -0.161017
    C   C47   0.944544  0.502505  0.657862  -0.161062
    C   C48   0.502488  0.055454  0.657860  -0.160761
    H   H17   0.599232  0.005208  0.828372  0.100186
    H   H18   0.994782  0.599229  0.828376  0.099981
    H   H19   0.400768  0.994777  0.828378  0.099933
    H   H20   0.005212  0.400772  0.828373  0.100072
    H   H21   0.599228  0.994789  0.171632  0.100126
    H   H22   0.994785  0.400769  0.171630  0.100088
    H   H23   0.400776  0.005222  0.171624  0.099923
    H   H24   0.005221  0.599228  0.171625  0.099981
    H   H25   0.099226  0.505221  0.328374  0.099943
    H   H26   0.494776  0.099230  0.328375  0.099983
    H   H27   0.900771  0.494787  0.328369  0.100079
    H   H28   0.505215  0.900766  0.328368  0.100097
    H   H29   0.099231  0.494779  0.671622  0.099964
    H   H30   0.494791  0.900775  0.671626  0.100085
    H   H31   0.900770  0.505211  0.671627  0.100102
    H   H32   0.505218  0.099227  0.671622  0.099973
    C   C49   0.500000  0.000010  0.824061  0.116769
    C   C50   0.000001  0.499999  0.824059  0.116765
    C   C51   0.499999  0.999987  0.175944  0.116645
    C   C52   0.999993  0.500001  0.175942  0.116747
    C   C53   0.000001  0.499990  0.324057  0.116721
    C   C54   0.500011  0.000001  0.324057  0.116740
    C   C55   0.000000  0.500007  0.675940  0.116784
    C   C56   0.499995  0.000000  0.675940  0.116861
    C   C57   0.499999  0.999994  0.896064  0.027466
    C   C58   0.000002  0.500000  0.896058  0.027644
    C   C59   0.500003  0.000015  0.103953  0.027526
    C   C60   0.000011  0.499997  0.103947  0.027713
    C   C61   0.999998  0.500011  0.396051  0.027801
    C   C62   0.499986  0.999997  0.396050  0.028025
    C   C63   0.000001  0.499995  0.603941  0.027524
    C   C64   0.499998  0.000001  0.603939  0.027570
    C   C65   0.460455  0.038986  0.767908  -0.132539
    C   C66   0.961006  0.460449  0.767910  -0.132386
    C   C67   0.539555  0.961007  0.767910  -0.132498
    C   C68   0.038987  0.539546  0.767910  -0.132395
    C   C69   0.460457  0.961007  0.232091  -0.132436
    C   C70   0.961006  0.539547  0.232092  -0.132354
    C   C71   0.539550  0.038992  0.232091  -0.132434
    C   C72   0.038989  0.460451  0.232092  -0.132351
    C   C73   0.960450  0.538992  0.267910  -0.132371
    C   C74   0.461012  0.960451  0.267908  -0.132336
    C   C75   0.039545  0.461008  0.267909  -0.132367
    C   C76   0.538995  0.039547  0.267908  -0.132347
    C   C77   0.960447  0.461008  0.732091  -0.132343
    C   C78   0.461014  0.039545  0.732090  -0.132241
    C   C79   0.039544  0.538989  0.732092  -0.132394
    C   C80   0.538995  0.960447  0.732090  -0.132296
    H   H33   0.429729  0.070285  0.781671  0.112512
    H   H34   0.929710  0.429726  0.781672  0.112485
    H   H35   0.570279  0.929709  0.781673  0.112510
    H   H36   0.070288  0.570268  0.781673  0.112497
    H   H37   0.429732  0.929708  0.218331  0.112517
    H   H38   0.929708  0.570274  0.218332  0.112470
    H   H39   0.570263  0.070297  0.218328  0.112495
    H   H40   0.070294  0.429733  0.218329  0.112462
    H   H41   0.929732  0.570295  0.281673  0.112479
    H   H42   0.429704  0.929734  0.281671  0.112456
    H   H43   0.070269  0.429709  0.281670  0.112488
    H   H44   0.570293  0.070275  0.281668  0.112476
    H   H45   0.929726  0.429708  0.718328  0.112459
    H   H46   0.429715  0.070266  0.718327  0.112467
    H   H47   0.070270  0.570287  0.718330  0.112485
    H   H48   0.570289  0.929725  0.718327  0.112479
    C   C81   0.500006  0.000000  0.714010  0.052295
    C   C82   0.999998  0.499998  0.714011  0.052415
    C   C83   0.500006  0.999998  0.285987  0.052376
    C   C84   0.999999  0.499999  0.285988  0.052413
    C   C85   0.999995  0.499998  0.214013  0.052389
    C   C86   0.500002  0.999998  0.214013  0.052561
    C   C87   0.999994  0.500001  0.785990  0.052435
    C   C88   0.500002  0.999997  0.785990  0.052592
    C   C89   0.717043  0.006162  0.469056  0.453560
    C   C90   0.993833  0.717042  0.469050  0.453981
    C   C91   0.282958  0.993833  0.469052  0.454028
    C   C92   0.006160  0.282963  0.469057  0.453496
    C   C93   0.717043  0.993831  0.530950  0.453789
    C   C94   0.993827  0.282956  0.530949  0.453740
    C   C95   0.282962  0.006162  0.530944  0.453579
    C   C96   0.006160  0.717043  0.530943  0.453628
    C   C97   0.217040  0.506165  0.969056  0.453816
    C   C98   0.493839  0.217039  0.969054  0.453548
    C   C99   0.782955  0.493829  0.969053  0.453894
    C   C100  0.506176  0.782957  0.969046  0.453703
    C   C101  0.217039  0.493835  0.030949  0.453968
    C   C102  0.493843  0.782961  0.030939  0.453489
    C   C103  0.782958  0.506159  0.030946  0.453643
    C   C104  0.506166  0.217045  0.030947  0.454045
    C   C105  0.781459  0.006448  0.469126  -0.344562
    C   C106  0.993539  0.781463  0.469124  -0.345027
    C   C107  0.218536  0.993537  0.469125  -0.345124
    C   C108  0.006449  0.218546  0.469129  -0.344477
    C   C109  0.781462  0.993548  0.530874  -0.344962
    C   C110  0.993548  0.218535  0.530874  -0.344965
    C   C111  0.218541  0.006440  0.530870  -0.344443
    C   C112  0.006441  0.781461  0.530872  -0.344454
    C   C113  0.281461  0.506448  0.969133  -0.344815
    C   C114  0.493554  0.281459  0.969123  -0.344575
    C   C115  0.718536  0.493547  0.969128  -0.345001
    C   C116  0.506462  0.718535  0.969119  -0.344946
    C   C117  0.281461  0.493545  0.030878  -0.345003
    C   C118  0.493561  0.718546  0.030865  -0.344369
    C   C119  0.718542  0.506446  0.030876  -0.344523
    C   C120  0.506455  0.281465  0.030871  -0.345106
    H   H49   0.806995  0.014001  0.445327  0.186425
    H   H50   0.985999  0.807009  0.445326  0.186743
    H   H51   0.192993  0.986011  0.445324  0.186794
    H   H52   0.014011  0.193010  0.445331  0.186375
    H   H53   0.807014  0.986004  0.554669  0.186748
    H   H54   0.986013  0.192983  0.554670  0.186805
    H   H55   0.192998  0.014016  0.554665  0.186394
    H   H56   0.014004  0.807001  0.554670  0.186406
    H   H57   0.307005  0.514002  0.945337  0.186551
    H   H58   0.485992  0.306995  0.945323  0.186429
    H   H59   0.692985  0.486012  0.945331  0.186753
    H   H60   0.513985  0.692984  0.945320  0.186848
    H   H61   0.307003  0.485999  0.054677  0.186706
    H   H62   0.485987  0.693009  0.054660  0.186272
    H   H63   0.693005  0.514011  0.054675  0.186401
    H   H64   0.513996  0.307015  0.054667  0.186772
    C   C121  0.813582  0.000004  0.500000  0.084466
    C   C122  0.999991  0.813585  0.499999  0.084224
    C   C123  0.186412  0.999991  0.499998  0.084330
    C   C124  0.000008  0.186416  0.500002  0.084352
    C   C125  0.313587  0.499996  0.000005  0.084486
    C   C126  0.500003  0.313586  0.999997  0.084510
    C   C127  0.686418  0.499999  0.000003  0.084460
    C   C128  0.500000  0.686416  0.999992  0.084284
    C   C129  0.685400  0.000009  0.500003  -0.414811
    C   C130  0.000010  0.685398  0.499996  -0.414945
    C   C131  0.314606  0.000006  0.499997  -0.414960
    C   C132  0.000001  0.314604  0.500003  -0.414623
    C   C133  0.185393  0.500006  0.000003  -0.415022
    C   C134  0.499992  0.185397  0.000003  -0.414974
    C   C135  0.814600  0.499998  0.999999  -0.414999
    C   C136  0.499994  0.814603  0.999993  -0.414614
    O   O33   0.983744  0.089167  0.471242  -0.560459
    O   O34   0.910828  0.983748  0.471242  -0.560451
    O   O35   0.016250  0.910831  0.471237  -0.560576
    O   O36   0.089164  0.016251  0.471239  -0.560520
    O   O37   0.983754  0.910828  0.528763  -0.560480
    O   O38   0.910833  0.016248  0.528766  -0.560554
    O   O39   0.016251  0.089165  0.528765  -0.560531
    O   O40   0.089170  0.983746  0.528764  -0.560462
    O   O41   0.483752  0.589165  0.971235  -0.560505
    O   O42   0.410836  0.483743  0.971240  -0.560490
    O   O43   0.516254  0.410829  0.971240  -0.560381
    O   O44   0.589172  0.516252  0.971236  -0.560537
    O   O45   0.483748  0.410831  0.028765  -0.560519
    O   O46   0.410832  0.516247  0.028765  -0.560387
    O   O47   0.516250  0.589168  0.028760  -0.560462
    O   O48   0.589169  0.483751  0.028760  -0.560403
    C   C137  0.000004  0.118346  0.500003  0.657248
    C   C138  0.881650  0.000009  0.500002  0.657170
    C   C139  0.000003  0.881652  0.500000  0.657448
    C   C140  0.118344  0.999999  0.500001  0.657286
    C   C141  0.499997  0.618347  0.999997  0.657256
    C   C142  0.381656  0.499993  0.000003  0.657108
    C   C143  0.499993  0.381653  0.000001  0.657138
    C   C144  0.618350  0.500009  0.000000  0.657146
    Cu  Cu9   0.999996  0.999999  0.466019  0.914903
    Cu  Cu10  0.000002  0.999997  0.533986  0.915069
    Cu  Cu11  0.500003  0.499997  0.966016  0.914977
    Cu  Cu12  0.500001  0.500000  0.033984  0.914962
    O   O49   0.684025  0.013437  0.439506  -0.399435
    C   C145  0.700970  0.989754  0.408406  0.805245
    O   O50   0.738879  0.947620  0.406522  -0.540775
    C   C146  0.668765  0.011428  0.376386  -0.498855
    H   H65   0.635364  0.048810  0.383217  0.108459
    H   H66   0.643416  0.971916  0.364410  0.139309
    H   H67   0.703572  0.029769  0.357741  0.151133
    O   O51   0.986550  0.684021  0.439501  -0.399661
    C   C147  0.010253  0.700950  0.408404  0.805098
    O   O52   0.052361  0.738887  0.406521  -0.540853
    C   C148  0.988584  0.668757  0.376384  -0.498369
    H   H68   0.951197  0.635372  0.383224  0.108319
    H   H69   0.028084  0.643395  0.364398  0.139111
    H   H70   0.970242  0.703590  0.357754  0.151115
    O   O53   0.315976  0.986550  0.439502  -0.399636
    C   C149  0.299046  0.010255  0.408405  0.804965
    O   O54   0.261107  0.052361  0.406522  -0.540821
    C   C150  0.331244  0.988586  0.376386  -0.498254
    H   H71   0.364631  0.951197  0.383223  0.108306
    H   H72   0.356602  0.028085  0.364398  0.139107
    H   H73   0.296413  0.970246  0.357756  0.151077
    O   O55   0.013432  0.315981  0.439505  -0.399561
    C   C151  0.989755  0.299032  0.408404  0.805288
    O   O56   0.947619  0.261126  0.406520  -0.540799
    C   C152  0.011429  0.331235  0.376383  -0.498462
    H   H74   0.048813  0.364633  0.383215  0.108303
    H   H75   0.971917  0.356587  0.364407  0.139225
    H   H76   0.029771  0.296429  0.357736  0.150997
    O   O57   0.684027  0.986541  0.560501  -0.399591
    C   C153  0.700954  0.010252  0.591597  0.804988
    O   O58   0.738898  0.052353  0.593480  -0.540825
    C   C154  0.668759  0.988588  0.623619  -0.498085
    H   H77   0.635380  0.951200  0.616773  0.108214
    H   H78   0.643389  0.028084  0.635607  0.139022
    H   H79   0.703591  0.970246  0.642250  0.151072
    O   O59   0.986534  0.315970  0.560501  -0.399594
    C   C155  0.010253  0.299048  0.591596  0.804811
    O   O60   0.052349  0.261097  0.593478  -0.540806
    C   C156  0.988591  0.331245  0.623618  -0.497821
    H   H80   0.951201  0.364623  0.616775  0.108182
    H   H81   0.028085  0.356610  0.635608  0.138960
    H   H82   0.970250  0.296409  0.642245  0.151008
    O   O61   0.315976  0.013441  0.560498  -0.399572
    C   C157  0.299033  0.989753  0.591599  0.805238
    O   O62   0.261117  0.947626  0.593483  -0.540764
    C   C158  0.331236  0.011422  0.623621  -0.498641
    H   H83   0.364628  0.048810  0.616789  0.108349
    H   H84   0.356592  0.971912  0.635599  0.139258
    H   H85   0.296426  0.029762  0.642265  0.151087
    O   O63   0.013439  0.684030  0.560496  -0.399512
    C   C159  0.989753  0.700973  0.591596  0.805161
    O   O64   0.947622  0.738888  0.593482  -0.540764
    C   C160  0.011423  0.668766  0.623617  -0.498686
    H   H86   0.048809  0.635369  0.616787  0.108382
    H   H87   0.971912  0.643414  0.635594  0.139268
    H   H88   0.029761  0.703572  0.642263  0.151111
    O   O65   0.184025  0.513443  0.939502  -0.399632
    C   C161  0.200964  0.489752  0.908402  0.805215
    O   O66   0.238885  0.447629  0.906520  -0.540795
    C   C162  0.168762  0.511419  0.876380  -0.498681
    H   H89   0.135371  0.548807  0.883213  0.108387
    H   H90   0.143405  0.471912  0.864400  0.139274
    H   H91   0.203575  0.529762  0.857738  0.151120
    O   O67   0.486564  0.184024  0.939503  -0.399460
    C   C163  0.510247  0.200972  0.908402  0.805272
    O   O68   0.552379  0.238885  0.906518  -0.540765
    C   C164  0.488578  0.168766  0.876382  -0.498869
    H   H92   0.451191  0.135368  0.883210  0.108399
    H   H93   0.528093  0.143417  0.864410  0.139340
    H   H94   0.470241  0.203572  0.857736  0.151143
    O   O69   0.815970  0.486547  0.939501  -0.399621
    C   C165  0.799042  0.510253  0.908404  0.805022
    O   O70   0.761103  0.552359  0.906520  -0.540816
    C   C166  0.831240  0.488585  0.876383  -0.498303
    H   H95   0.864624  0.451197  0.883224  0.108289
    H   H96   0.856606  0.528082  0.864397  0.139125
    H   H97   0.796415  0.470243  0.857748  0.151091
    O   O71   0.513469  0.815976  0.939497  -0.399579
    C   C167  0.489745  0.799054  0.908404  0.804764
    O   O72   0.447658  0.761093  0.906523  -0.540840
    C   C168  0.511405  0.831246  0.876383  -0.497609
    H   H98   0.548797  0.864619  0.883228  0.108127
    H   H99   0.471911  0.856612  0.864392  0.138888
    H   H100  0.529745  0.796402  0.857760  0.150975
    O   O73   0.184021  0.486550  0.060498  -0.399585
    C   C169  0.200955  0.510252  0.091596  0.804966
    O   O74   0.238891  0.552363  0.093480  -0.540783
    C   C170  0.168757  0.488583  0.123615  -0.498350
    H   H101  0.135371  0.451193  0.116778  0.108330
    H   H102  0.143400  0.528085  0.135601  0.139146
    H   H103  0.203586  0.470244  0.142247  0.151094
    O   O75   0.486571  0.815976  0.060492  -0.399610
    C   C171  0.510242  0.799025  0.091595  0.805303
    O   O76   0.552389  0.761130  0.093480  -0.540756
    C   C172  0.488567  0.831232  0.123617  -0.498226
    H   H104  0.451185  0.864635  0.116787  0.108237
    H   H105  0.528080  0.856584  0.135592  0.139174
    H   H106  0.470224  0.796436  0.142269  0.150885
    O   O77   0.815977  0.513441  0.060496  -0.399539
    C   C173  0.799034  0.489754  0.091595  0.805324
    O   O78   0.761121  0.447623  0.093479  -0.540820
    C   C174  0.831235  0.511425  0.123615  -0.498822
    H   H107  0.864632  0.548808  0.116782  0.108443
    H   H108  0.856588  0.471914  0.135593  0.139289
    H   H109  0.796422  0.529766  0.142257  0.151129
    O   O79   0.513453  0.184027  0.060498  -0.399713
    C   C175  0.489745  0.200951  0.091596  0.805024
    O   O80   0.447639  0.238889  0.093479  -0.540833
    C   C176  0.511415  0.168756  0.123616  -0.498256
    H   H110  0.548803  0.135372  0.116774  0.108292
    H   H111  0.471920  0.143390  0.135607  0.139087
    H   H112  0.529758  0.203590  0.142244  0.151097
