# Generated by REPEAT Assigner based on pymatgen
data_DB0-m2_o1_o2_f0_nbo.sym.8
_audit_creation_date              2022-05-24
_audit_creation_method            REPEAT_Assigner
_cell_length_a                    21.506195
_cell_length_b                    21.506195
_cell_length_c                    30.040643
_cell_angle_alpha                 90.000000
_cell_angle_beta                  90.000000
_cell_angle_gamma                 90.000000
_cell_volume                      13894.290008
_symmetry_space_group_name_H-M    P1
_symmetry_Int_Tables_number       1
loop_
    _symmetry_equiv_pos_site_id
    _symmetry_equiv_pos_as_xyz
    1  x,y,z
loop_
    _atom_site_type_symbol
    _atom_site_label
    _atom_site_fract_x
    _atom_site_fract_y
    _atom_site_fract_z
    _atom_type_partial_charge
    O   O1    0.088943  0.448353  0.511336  -0.529162
    O   O2    0.448353  0.911057  0.511336  -0.529163
    O   O3    0.911057  0.551648  0.511336  -0.529168
    O   O4    0.551648  0.088943  0.511336  -0.529189
    O   O5    0.088943  0.551648  0.488664  -0.529190
    O   O6    0.448353  0.088943  0.488664  -0.529190
    O   O7    0.911057  0.448353  0.488664  -0.529170
    O   O8    0.551648  0.911057  0.488664  -0.529179
    O   O9    0.588943  0.948353  0.011336  -0.529141
    O   O10   0.948353  0.411057  0.011336  -0.529154
    O   O11   0.411057  0.051647  0.011336  -0.529162
    O   O12   0.051647  0.588943  0.011336  -0.529144
    O   O13   0.588943  0.051647  0.988664  -0.529173
    O   O14   0.948353  0.588943  0.988664  -0.529143
    O   O15   0.411057  0.948353  0.988664  -0.529145
    O   O16   0.051647  0.411057  0.988664  -0.529172
    C   C1    0.118001  0.500000  0.500000  0.563893
    C   C2    0.500000  0.881999  0.500000  0.563926
    C   C3    0.881999  0.500000  0.500000  0.563928
    C   C4    0.500000  0.118001  0.500000  0.563950
    C   C5    0.618001  0.000000  0.000000  0.563878
    C   C6    0.000000  0.381999  0.000000  0.563887
    C   C7    0.381999  0.000000  0.000000  0.563824
    C   C8    0.000000  0.618001  0.000000  0.563819
    O   O17   0.015812  0.448398  0.436358  -0.526926
    O   O18   0.448398  0.984188  0.436358  -0.526924
    O   O19   0.984188  0.551603  0.436358  -0.526924
    O   O20   0.551603  0.015812  0.436358  -0.526936
    O   O21   0.015812  0.551603  0.563642  -0.526928
    O   O22   0.448398  0.015812  0.563642  -0.526932
    O   O23   0.984188  0.448398  0.563642  -0.526908
    O   O24   0.551603  0.984188  0.563642  -0.526915
    O   O25   0.515812  0.948397  0.936358  -0.526907
    O   O26   0.948398  0.484188  0.936358  -0.526883
    O   O27   0.484188  0.051603  0.936358  -0.526880
    O   O28   0.051603  0.515812  0.936358  -0.526920
    O   O29   0.515812  0.051603  0.063642  -0.526907
    O   O30   0.948398  0.515812  0.063642  -0.526899
    O   O31   0.484188  0.948397  0.063642  -0.526908
    O   O32   0.051603  0.484188  0.063642  -0.526931
    C   C9    0.282119  0.552119  0.513742  0.501960
    C   C10   0.552119  0.717881  0.513742  0.501979
    C   C11   0.717881  0.447882  0.513742  0.501987
    C   C12   0.447882  0.282119  0.513742  0.501908
    C   C13   0.282119  0.447882  0.486258  0.501932
    C   C14   0.552119  0.282119  0.486258  0.501868
    C   C15   0.717881  0.552119  0.486258  0.501950
    C   C16   0.447882  0.717881  0.486258  0.501952
    C   C17   0.782119  0.052119  0.013742  0.501909
    C   C18   0.052119  0.217881  0.013742  0.501976
    C   C19   0.217881  0.947882  0.013742  0.502024
    C   C20   0.947882  0.782119  0.013742  0.501968
    C   C21   0.782119  0.947882  0.986258  0.501898
    C   C22   0.052119  0.782119  0.986258  0.501923
    C   C23   0.217881  0.052119  0.986258  0.501979
    C   C24   0.947882  0.217881  0.986258  0.501956
    C   C25   0.000000  0.500000  0.415445  0.756344
    C   C26   0.500000  0.000000  0.415445  0.756341
    C   C27   0.000000  0.500000  0.584555  0.756305
    C   C28   0.500000  0.000000  0.584555  0.756319
    C   C29   0.500000  0.000000  0.915445  0.756321
    C   C30   0.000000  0.500000  0.915445  0.756343
    C   C31   0.500000  0.000000  0.084555  0.756298
    C   C32   0.000000  0.500000  0.084555  0.756325
    Cu  Cu1   0.000000  0.439041  0.500000  0.874513
    Cu  Cu2   0.439041  0.000000  0.500000  0.874475
    Cu  Cu3   0.000000  0.560959  0.500000  0.874519
    Cu  Cu4   0.560959  0.000000  0.500000  0.874590
    Cu  Cu5   0.500000  0.939041  0.000000  0.874433
    Cu  Cu6   0.939041  0.500000  0.000000  0.874457
    Cu  Cu7   0.500000  0.060959  0.000000  0.874576
    Cu  Cu8   0.060959  0.500000  0.000000  0.874537
    C   C33   0.185880  0.500000  0.500000  0.172380
    C   C34   0.500000  0.814121  0.500000  0.172333
    C   C35   0.814121  0.500000  0.500000  0.172338
    C   C36   0.500000  0.185880  0.500000  0.172216
    C   C37   0.685880  0.000000  0.000000  0.172243
    C   C38   0.000000  0.314121  0.000000  0.172369
    C   C39   0.314121  0.000000  0.000000  0.172520
    C   C40   0.000000  0.685880  0.000000  0.172403
    C   C41   0.218049  0.552619  0.512579  -0.412319
    C   C42   0.552619  0.781951  0.512579  -0.412302
    C   C43   0.781951  0.447381  0.512579  -0.412303
    C   C44   0.447381  0.218049  0.512579  -0.412212
    C   C45   0.218049  0.447381  0.487421  -0.412210
    C   C46   0.552619  0.218049  0.487421  -0.412070
    C   C47   0.781951  0.552619  0.487421  -0.412198
    C   C48   0.447381  0.781951  0.487421  -0.412194
    C   C49   0.718049  0.052619  0.012579  -0.412115
    C   C50   0.052619  0.281951  0.012579  -0.412320
    C   C51   0.281951  0.947381  0.012579  -0.412442
    C   C52   0.947381  0.718049  0.012579  -0.412252
    C   C53   0.718049  0.947381  0.987421  -0.412144
    C   C54   0.052619  0.718049  0.987421  -0.412240
    C   C55   0.281951  0.052619  0.987421  -0.412297
    C   C56   0.947381  0.281951  0.987421  -0.412203
    C   C57   0.020981  0.551300  0.297541  -0.630676
    C   C58   0.551300  0.979019  0.297541  -0.630686
    C   C59   0.979019  0.448700  0.297541  -0.630654
    C   C60   0.448700  0.020981  0.297541  -0.630664
    C   C61   0.020981  0.448700  0.702459  -0.630642
    C   C62   0.551300  0.020981  0.702459  -0.630656
    C   C63   0.979019  0.551300  0.702459  -0.630643
    C   C64   0.448700  0.979019  0.702459  -0.630633
    C   C65   0.520981  0.051300  0.797541  -0.630738
    C   C66   0.051300  0.479019  0.797541  -0.630721
    C   C67   0.479019  0.948700  0.797541  -0.630680
    C   C68   0.948700  0.520981  0.797541  -0.630700
    C   C69   0.520981  0.948700  0.202459  -0.630673
    C   C70   0.051300  0.520981  0.202459  -0.630686
    C   C71   0.479019  0.051300  0.202459  -0.630674
    C   C72   0.948700  0.479019  0.202459  -0.630632
    H   H1    0.036989  0.592095  0.279937  0.192745
    H   H2    0.592095  0.963011  0.279937  0.192745
    H   H3    0.963011  0.407905  0.279937  0.192736
    H   H4    0.407905  0.036989  0.279937  0.192741
    H   H5    0.036989  0.407905  0.720063  0.192737
    H   H6    0.592095  0.036989  0.720063  0.192731
    H   H7    0.963011  0.592095  0.720063  0.192728
    H   H8    0.407905  0.963011  0.720063  0.192731
    H   H9    0.536989  0.092095  0.779937  0.192753
    H   H10   0.092095  0.463011  0.779937  0.192746
    H   H11   0.463011  0.907905  0.779937  0.192741
    H   H12   0.907905  0.536989  0.779937  0.192747
    H   H13   0.536989  0.907905  0.220063  0.192748
    H   H14   0.092095  0.536989  0.220063  0.192739
    H   H15   0.463011  0.092095  0.220063  0.192736
    H   H16   0.907905  0.463011  0.220063  0.192732
    C   C73   0.020341  0.551692  0.343416  0.707727
    C   C74   0.551692  0.979660  0.343416  0.707723
    C   C75   0.979660  0.448308  0.343416  0.707708
    C   C76   0.448308  0.020341  0.343416  0.707722
    C   C77   0.020341  0.448308  0.656584  0.707714
    C   C78   0.551692  0.020341  0.656584  0.707731
    C   C79   0.979660  0.551692  0.656584  0.707710
    C   C80   0.448308  0.979660  0.656584  0.707701
    C   C81   0.520341  0.051692  0.843416  0.707793
    C   C82   0.051692  0.479660  0.843416  0.707776
    C   C83   0.479660  0.948308  0.843416  0.707744
    C   C84   0.948308  0.520341  0.843416  0.707764
    C   C85   0.520341  0.948308  0.156584  0.707704
    C   C86   0.051692  0.520341  0.156584  0.707761
    C   C87   0.479660  0.051692  0.156584  0.707734
    C   C88   0.948308  0.479660  0.156584  0.707711
    C   C89   0.000000  0.500000  0.366654  -0.655357
    C   C90   0.500000  0.000000  0.366654  -0.655361
    C   C91   0.000000  0.500000  0.633346  -0.655335
    C   C92   0.500000  0.000000  0.633346  -0.655349
    C   C93   0.500000  0.000000  0.866654  -0.655416
    C   C94   0.000000  0.500000  0.866654  -0.655421
    C   C95   0.500000  0.000000  0.133346  -0.655343
    C   C96   0.000000  0.500000  0.133346  -0.655372
    H   H17   0.193255  0.593934  0.522804  0.155001
    H   H18   0.593934  0.806745  0.522804  0.154994
    H   H19   0.806745  0.406066  0.522804  0.154996
    H   H20   0.406066  0.193255  0.522804  0.154982
    H   H21   0.193255  0.406066  0.477196  0.154941
    H   H22   0.593934  0.193255  0.477196  0.154922
    H   H23   0.806745  0.593934  0.477196  0.154935
    H   H24   0.406066  0.806745  0.477196  0.154935
    H   H25   0.693255  0.093934  0.022805  0.154932
    H   H26   0.093934  0.306745  0.022804  0.154996
    H   H27   0.306745  0.906066  0.022805  0.155013
    H   H28   0.906066  0.693255  0.022804  0.154952
    H   H29   0.693255  0.906066  0.977196  0.154933
    H   H30   0.093934  0.693255  0.977196  0.154949
    H   H31   0.306745  0.093934  0.977196  0.154954
    H   H32   0.906066  0.306745  0.977196  0.154937
    C   C97   0.000000  0.500000  0.274384  0.391289
    C   C98   0.500000  0.000000  0.274384  0.391291
    C   C99   0.000000  0.500000  0.725616  0.391244
    C   C100  0.500000  0.000000  0.725616  0.391247
    C   C101  0.500000  0.000000  0.774384  0.391327
    C   C102  0.000000  0.500000  0.774384  0.391329
    C   C103  0.500000  0.000000  0.225616  0.391280
    C   C104  0.000000  0.500000  0.225616  0.391256
    O   O33   0.481370  0.411522  0.536431  -0.661149
    O   O34   0.411522  0.518631  0.536431  -0.661152
    O   O35   0.518631  0.588478  0.536431  -0.661146
    O   O36   0.588478  0.481370  0.536431  -0.661143
    O   O37   0.481370  0.588478  0.463569  -0.661138
    O   O38   0.411522  0.481370  0.463569  -0.661147
    O   O39   0.518631  0.411522  0.463569  -0.661153
    O   O40   0.588478  0.518631  0.463569  -0.661149
    O   O41   0.981370  0.911522  0.036431  -0.661095
    O   O42   0.911522  0.018631  0.036431  -0.661107
    O   O43   0.018631  0.088478  0.036431  -0.661123
    O   O44   0.088478  0.981370  0.036431  -0.661110
    O   O45   0.981370  0.088478  0.963569  -0.661104
    O   O46   0.911522  0.981370  0.963569  -0.661088
    O   O47   0.018631  0.911522  0.963569  -0.661091
    O   O48   0.088478  0.018631  0.963569  -0.661110
    C   C105  0.500000  0.382404  0.500000  0.960347
    C   C106  0.382404  0.500000  0.500000  0.960330
    C   C107  0.500000  0.617596  0.500000  0.960352
    C   C108  0.617596  0.500000  0.500000  0.960360
    C   C109  0.000000  0.882404  0.000000  0.960250
    C   C110  0.882404  0.000000  0.000000  0.960279
    C   C111  0.000000  0.117596  0.000000  0.960295
    C   C112  0.117596  0.000000  0.000000  0.960265
    C   C113  0.314417  0.500000  0.500000  -0.495491
    C   C114  0.500000  0.685583  0.500000  -0.495533
    C   C115  0.685583  0.500000  0.500000  -0.495539
    C   C116  0.500000  0.314417  0.500000  -0.495465
    C   C117  0.814417  0.000000  0.000000  -0.495480
    C   C118  0.000000  0.185583  0.000000  -0.495515
    C   C119  0.185583  0.000000  0.000000  -0.495516
    C   C120  0.000000  0.814417  0.000000  -0.495487
    Cu  Cu9   0.500000  0.500000  0.543312  0.970342
    Cu  Cu10  0.500000  0.500000  0.456688  0.970269
    Cu  Cu11  0.000000  0.000000  0.043312  0.970285
    Cu  Cu12  0.000000  0.000000  0.956688  0.970204
    O   O49   0.042164  0.602718  0.365554  -0.538091
    H   H33   0.087441  0.595351  0.368335  0.343405
    O   O50   0.602718  0.957836  0.365554  -0.538093
    H   H34   0.595351  0.912559  0.368335  0.343411
    O   O51   0.957836  0.397282  0.365554  -0.538093
    H   H35   0.912559  0.404649  0.368335  0.343410
    O   O52   0.397282  0.042164  0.365554  -0.538089
    H   H36   0.404649  0.087441  0.368335  0.343403
    O   O53   0.042164  0.397282  0.634446  -0.538093
    H   H37   0.087441  0.404649  0.631665  0.343403
    O   O54   0.602718  0.042164  0.634446  -0.538095
    H   H38   0.595351  0.087441  0.631665  0.343405
    O   O55   0.957836  0.602718  0.634446  -0.538095
    H   H39   0.912559  0.595351  0.631665  0.343410
    O   O56   0.397282  0.957836  0.634446  -0.538095
    H   H40   0.404649  0.912559  0.631665  0.343408
    O   O57   0.542164  0.102718  0.865554  -0.538136
    H   H41   0.587441  0.095351  0.868335  0.343448
    O   O58   0.102718  0.457836  0.865554  -0.538105
    H   H42   0.095351  0.412559  0.868335  0.343416
    O   O59   0.457836  0.897282  0.865554  -0.538099
    H   H43   0.412559  0.904649  0.868335  0.343414
    O   O60   0.897282  0.542164  0.865554  -0.538132
    H   H44   0.904649  0.587441  0.868335  0.343444
    O   O61   0.542164  0.897282  0.134446  -0.538077
    H   H45   0.587441  0.904649  0.131665  0.343399
    O   O62   0.102718  0.542164  0.134446  -0.538093
    H   H46   0.095351  0.587441  0.131665  0.343401
    O   O63   0.457836  0.102718  0.134446  -0.538099
    H   H47   0.412559  0.095351  0.131665  0.343412
    O   O64   0.897282  0.457836  0.134446  -0.538097
    H   H48   0.904649  0.412559  0.131665  0.343409
    O   O65   0.313359  0.604216  0.527012  -0.472692
    H   H49   0.312797  0.602283  0.559935  0.343652
    O   O66   0.604216  0.686641  0.527012  -0.472707
    H   H50   0.602283  0.687204  0.559935  0.343656
    O   O67   0.686641  0.395784  0.527012  -0.472719
    H   H51   0.687204  0.397717  0.559935  0.343654
    O   O68   0.395784  0.313359  0.527012  -0.472707
    H   H52   0.397717  0.312797  0.559935  0.343656
    O   O69   0.313359  0.395784  0.472988  -0.472676
    H   H53   0.312797  0.397717  0.440065  0.343637
    O   O70   0.604216  0.313359  0.472988  -0.472673
    H   H54   0.602283  0.312797  0.440065  0.343641
    O   O71   0.686641  0.604216  0.472988  -0.472675
    H   H55   0.687204  0.602283  0.440065  0.343638
    O   O72   0.395784  0.686641  0.472988  -0.472691
    H   H56   0.397717  0.687204  0.440065  0.343640
    O   O73   0.813359  0.104216  0.027012  -0.472694
    H   H57   0.812797  0.102283  0.059935  0.343645
    O   O74   0.104216  0.186641  0.027012  -0.472704
    H   H58   0.102283  0.187204  0.059935  0.343655
    O   O75   0.186641  0.895784  0.027012  -0.472702
    H   H59   0.187203  0.897717  0.059935  0.343649
    O   O76   0.895784  0.813359  0.027012  -0.472692
    H   H60   0.897717  0.812797  0.059935  0.343638
    O   O77   0.813359  0.895784  0.972988  -0.472667
    H   H61   0.812797  0.897717  0.940065  0.343627
    O   O78   0.104216  0.813359  0.972988  -0.472654
    H   H62   0.102283  0.812797  0.940065  0.343632
    O   O79   0.186641  0.104216  0.972988  -0.472671
    H   H63   0.187204  0.102283  0.940065  0.343635
    O   O80   0.895784  0.186641  0.972988  -0.472686
    H   H64   0.897717  0.187203  0.940065  0.343631
