# Generated by REPEAT Assigner based on pymatgen
data_DB0-m2_o1_o3_f0_nbo.sym.27
_audit_creation_date              2022-05-24
_audit_creation_method            REPEAT_Assigner
_cell_length_a                    21.556963
_cell_length_b                    21.556963
_cell_length_c                    38.569836
_cell_angle_alpha                 90.000000
_cell_angle_beta                  90.000000
_cell_angle_gamma                 90.000000
_cell_volume                      17923.504414
_symmetry_space_group_name_H-M    P1
_symmetry_Int_Tables_number       1
loop_
    _symmetry_equiv_pos_site_id
    _symmetry_equiv_pos_as_xyz
    1  x,y,z
loop_
    _atom_site_type_symbol
    _atom_site_label
    _atom_site_fract_x
    _atom_site_fract_y
    _atom_site_fract_z
    _atom_type_partial_charge
    O   O1    0.588314  0.051014  0.509899  -0.601262
    O   O2    0.948986  0.588314  0.509899  -0.601242
    O   O3    0.411686  0.948986  0.509899  -0.601236
    O   O4    0.051014  0.411686  0.509899  -0.601259
    O   O5    0.588314  0.948986  0.490102  -0.601234
    O   O6    0.948986  0.411686  0.490102  -0.601234
    O   O7    0.411686  0.051014  0.490102  -0.601245
    O   O8    0.051014  0.588314  0.490102  -0.601263
    O   O9    0.088314  0.551014  0.009899  -0.601269
    O   O10   0.448986  0.088314  0.009899  -0.601249
    O   O11   0.911686  0.448986  0.009899  -0.601261
    O   O12   0.551014  0.911686  0.009898  -0.601267
    O   O13   0.088314  0.448986  0.990102  -0.601263
    O   O14   0.448986  0.911686  0.990102  -0.601250
    O   O15   0.911686  0.551014  0.990102  -0.601252
    O   O16   0.551014  0.088314  0.990101  -0.601288
    C   C1    0.617359  0.000000  0.500000  0.705991
    C   C2    0.000000  0.617359  0.500000  0.705967
    C   C3    0.382641  0.000000  0.500000  0.705973
    C   C4    0.000000  0.382641  0.500000  0.705958
    C   C5    0.117359  0.500000  0.000000  0.706034
    C   C6    0.500000  0.117360  0.000000  0.706021
    C   C7    0.882641  0.500000  0.000000  0.706024
    C   C8    0.500000  0.882641  0.000000  0.706029
    O   O17   0.482408  0.051034  0.549476  -0.600495
    O   O18   0.948966  0.482408  0.549476  -0.600477
    O   O19   0.517592  0.948966  0.549476  -0.600479
    O   O20   0.051034  0.517592  0.549476  -0.600498
    O   O21   0.482408  0.948966  0.450524  -0.600505
    O   O22   0.948966  0.517592  0.450524  -0.600481
    O   O23   0.517592  0.051034  0.450524  -0.600498
    O   O24   0.051034  0.482408  0.450524  -0.600528
    O   O25   0.982408  0.551034  0.049476  -0.600465
    O   O26   0.448966  0.982408  0.049476  -0.600453
    O   O27   0.017592  0.448966  0.049476  -0.600475
    O   O28   0.551034  0.017592  0.049476  -0.600490
    O   O29   0.982408  0.448966  0.950524  -0.600530
    O   O30   0.448966  0.017592  0.950524  -0.600512
    O   O31   0.017592  0.551034  0.950524  -0.600526
    O   O32   0.551034  0.982408  0.950524  -0.600535
    C   C9    0.500000  0.000000  0.565759  0.691747
    C   C10   0.000000  0.500000  0.565759  0.691719
    C   C11   0.500000  0.000000  0.434241  0.691751
    C   C12   0.000000  0.500000  0.434241  0.691730
    C   C13   0.000000  0.500000  0.065759  0.691712
    C   C14   0.500000  0.000000  0.065759  0.691698
    C   C15   0.000000  0.500000  0.934241  0.691753
    C   C16   0.500000  0.000000  0.934241  0.691768
    Cu  Cu1   0.500000  0.060527  0.500000  0.958492
    Cu  Cu2   0.939473  0.500000  0.500000  0.958472
    Cu  Cu3   0.500000  0.939473  0.500000  0.958512
    Cu  Cu4   0.060527  0.500000  0.500000  0.958504
    Cu  Cu5   0.000000  0.560527  0.000000  0.958591
    Cu  Cu6   0.439473  0.000000  0.000000  0.958599
    Cu  Cu7   0.000000  0.439473  0.000000  0.958549
    Cu  Cu8   0.560527  0.000000  0.000000  0.958562
    C   C17   0.554615  0.991306  0.878171  -0.082098
    C   C18   0.008694  0.554615  0.878171  -0.082106
    C   C19   0.445385  0.008694  0.878171  -0.082096
    C   C20   0.991306  0.445385  0.878171  -0.082112
    C   C21   0.554615  0.008694  0.121829  -0.081991
    C   C22   0.008694  0.445385  0.121829  -0.081976
    C   C23   0.445385  0.991306  0.121829  -0.081992
    C   C24   0.991306  0.554615  0.121829  -0.081980
    C   C25   0.054615  0.491306  0.378171  -0.081904
    C   C26   0.508694  0.054615  0.378171  -0.082194
    C   C27   0.945385  0.508694  0.378171  -0.082201
    C   C28   0.491306  0.945385  0.378171  -0.081901
    C   C29   0.054615  0.508694  0.621829  -0.082011
    C   C30   0.508694  0.945385  0.621829  -0.082001
    C   C31   0.945385  0.491306  0.621829  -0.082021
    C   C32   0.491306  0.054615  0.621829  -0.082005
    H   H1    0.598090  0.985070  0.891663  0.116700
    H   H2    0.014930  0.598090  0.891663  0.116705
    H   H3    0.401910  0.014930  0.891663  0.116700
    H   H4    0.985070  0.401910  0.891663  0.116704
    H   H5    0.598090  0.014930  0.108337  0.116642
    H   H6    0.014930  0.401910  0.108337  0.116636
    H   H7    0.401910  0.985070  0.108337  0.116643
    H   H8    0.985070  0.598090  0.108337  0.116636
    H   H9    0.098090  0.485070  0.391663  0.116644
    H   H10   0.514930  0.098090  0.391663  0.116707
    H   H11   0.901910  0.514930  0.391663  0.116707
    H   H12   0.485070  0.901910  0.391663  0.116643
    H   H13   0.098090  0.514930  0.608337  0.116651
    H   H14   0.514930  0.901910  0.608337  0.116646
    H   H15   0.901910  0.485070  0.608337  0.116653
    H   H16   0.485070  0.098090  0.608337  0.116647
    C   C33   0.554665  0.991637  0.842437  -0.160273
    C   C34   0.008363  0.554665  0.842437  -0.160269
    C   C35   0.445335  0.008363  0.842437  -0.160263
    C   C36   0.991637  0.445335  0.842437  -0.160267
    C   C37   0.554665  0.008363  0.157563  -0.160082
    C   C38   0.008363  0.445335  0.157563  -0.160086
    C   C39   0.445335  0.991637  0.157563  -0.160083
    C   C40   0.991637  0.554665  0.157563  -0.160082
    C   C41   0.054665  0.491637  0.342437  -0.160397
    C   C42   0.508363  0.054665  0.342437  -0.159972
    C   C43   0.945335  0.508363  0.342437  -0.159956
    C   C44   0.491637  0.945335  0.342437  -0.160395
    C   C45   0.054665  0.508363  0.657563  -0.160062
    C   C46   0.508363  0.945335  0.657563  -0.160056
    C   C47   0.945335  0.491637  0.657563  -0.160049
    C   C48   0.491637  0.054665  0.657563  -0.160065
    H   H17   0.598375  0.986591  0.829042  0.111905
    H   H18   0.013409  0.598375  0.829042  0.111903
    H   H19   0.401625  0.013409  0.829042  0.111898
    H   H20   0.986591  0.401625  0.829042  0.111902
    H   H21   0.598375  0.013409  0.170958  0.111875
    H   H22   0.013409  0.401625  0.170958  0.111870
    H   H23   0.401625  0.986591  0.170958  0.111871
    H   H24   0.986591  0.598375  0.170958  0.111877
    H   H25   0.098375  0.486591  0.329042  0.111966
    H   H26   0.513409  0.098375  0.329042  0.111814
    H   H27   0.901625  0.513409  0.329042  0.111808
    H   H28   0.486591  0.901625  0.329042  0.111965
    H   H29   0.098375  0.513409  0.670958  0.111867
    H   H30   0.513409  0.901625  0.670958  0.111863
    H   H31   0.901625  0.486591  0.670958  0.111864
    H   H32   0.486591  0.098375  0.670958  0.111870
    C   C49   0.500000  0.000000  0.824238  0.102028
    C   C50   0.000000  0.500000  0.824238  0.102033
    C   C51   0.500000  0.000000  0.175762  0.101377
    C   C52   0.000000  0.500000  0.175762  0.101373
    C   C53   0.000000  0.500000  0.324238  0.101722
    C   C54   0.500000  0.000000  0.324238  0.101725
    C   C55   0.000000  0.500000  0.675762  0.101336
    C   C56   0.500000  0.000000  0.675762  0.101331
    C   C57   0.500000  0.000000  0.896250  -0.052426
    C   C58   0.000000  0.500000  0.896250  -0.052409
    C   C59   0.500000  0.000000  0.103750  -0.052452
    C   C60   0.000000  0.500000  0.103750  -0.052466
    C   C61   0.000000  0.500000  0.396250  -0.052427
    C   C62   0.500000  0.000000  0.396250  -0.052443
    C   C63   0.000000  0.500000  0.603750  -0.052446
    C   C64   0.500000  0.000000  0.603750  -0.052459
    C   C65   0.461000  0.039143  0.767866  -0.141107
    C   C66   0.960857  0.461000  0.767866  -0.141114
    C   C67   0.539000  0.960857  0.767866  -0.141115
    C   C68   0.039143  0.539000  0.767866  -0.141112
    C   C69   0.461000  0.960857  0.232134  -0.141200
    C   C70   0.960857  0.539000  0.232134  -0.141346
    C   C71   0.539000  0.039143  0.232134  -0.141346
    C   C72   0.039143  0.461000  0.232134  -0.141209
    C   C73   0.961000  0.539143  0.267866  -0.141090
    C   C74   0.460857  0.961000  0.267866  -0.141244
    C   C75   0.039000  0.460857  0.267866  -0.141246
    C   C76   0.539143  0.039000  0.267866  -0.141090
    C   C77   0.961000  0.460857  0.732134  -0.141326
    C   C78   0.460857  0.039000  0.732134  -0.141336
    C   C79   0.039000  0.539143  0.732134  -0.141335
    C   C80   0.539143  0.961000  0.732134  -0.141331
    H   H33   0.430802  0.071156  0.781250  0.113810
    H   H34   0.928844  0.430801  0.781250  0.113808
    H   H35   0.569199  0.928844  0.781250  0.113807
    H   H36   0.071156  0.569198  0.781250  0.113807
    H   H37   0.430802  0.928844  0.218750  0.113814
    H   H38   0.928844  0.569199  0.218750  0.113843
    H   H39   0.569199  0.071156  0.218750  0.113846
    H   H40   0.071156  0.430801  0.218750  0.113819
    H   H41   0.930802  0.571156  0.281250  0.113801
    H   H42   0.428844  0.930801  0.281250  0.113832
    H   H43   0.069199  0.428844  0.281250  0.113832
    H   H44   0.571156  0.069198  0.281250  0.113798
    H   H45   0.930802  0.428844  0.718750  0.113839
    H   H46   0.428844  0.069199  0.718750  0.113839
    H   H47   0.069199  0.571156  0.718750  0.113842
    H   H48   0.571156  0.930801  0.718750  0.113844
    C   C81   0.500000  0.000000  0.713928  0.071126
    C   C82   0.000000  0.500000  0.713928  0.071123
    C   C83   0.500000  0.000000  0.286072  0.070741
    C   C84   0.000000  0.500000  0.286072  0.070744
    C   C85   0.000000  0.500000  0.213928  0.071035
    C   C86   0.500000  0.000000  0.213928  0.071026
    C   C87   0.000000  0.500000  0.786072  0.070546
    C   C88   0.500000  0.000000  0.786072  0.070544
    C   C89   0.717228  0.962629  0.477268  -0.118036
    C   C90   0.037371  0.717228  0.477268  -0.118068
    C   C91   0.282772  0.037371  0.477268  -0.118012
    C   C92   0.962629  0.282772  0.477268  -0.118054
    C   C93   0.717228  0.037371  0.522732  -0.118068
    C   C94   0.037371  0.282772  0.522732  -0.118030
    C   C95   0.282772  0.962629  0.522732  -0.118026
    C   C96   0.962629  0.717228  0.522732  -0.118051
    C   C97   0.217228  0.462629  0.977268  -0.118072
    C   C98   0.537371  0.217227  0.977268  -0.118063
    C   C99   0.782773  0.537371  0.977268  -0.118025
    C   C100  0.462629  0.782772  0.977268  -0.118022
    C   C101  0.217228  0.537371  0.022732  -0.118074
    C   C102  0.537371  0.782772  0.022732  -0.118005
    C   C103  0.782773  0.462629  0.022732  -0.118041
    C   C104  0.462629  0.217227  0.022732  -0.118053
    H   H49   0.692100  0.932717  0.459723  0.127082
    H   H50   0.067283  0.692100  0.459723  0.127100
    H   H51   0.307900  0.067283  0.459723  0.127081
    H   H52   0.932717  0.307900  0.459723  0.127092
    H   H53   0.692100  0.067283  0.540277  0.127105
    H   H54   0.067283  0.307900  0.540277  0.127090
    H   H55   0.307900  0.932717  0.540277  0.127085
    H   H56   0.932717  0.692100  0.540277  0.127090
    H   H57   0.192100  0.432717  0.959723  0.127088
    H   H58   0.567284  0.192101  0.959723  0.127098
    H   H59   0.807900  0.567283  0.959723  0.127081
    H   H60   0.432717  0.807901  0.959723  0.127078
    H   H61   0.192100  0.567283  0.040277  0.127103
    H   H62   0.567283  0.807901  0.040277  0.127078
    H   H63   0.807900  0.432717  0.040277  0.127091
    H   H64   0.432717  0.192101  0.040277  0.127090
    C   C105  0.781276  0.962989  0.476730  -0.024403
    C   C106  0.037011  0.781276  0.476730  -0.024318
    C   C107  0.218724  0.037011  0.476730  -0.024503
    C   C108  0.962989  0.218724  0.476730  -0.024387
    C   C109  0.781276  0.037011  0.523270  -0.024338
    C   C110  0.037011  0.218724  0.523270  -0.024433
    C   C111  0.218724  0.962989  0.523270  -0.024437
    C   C112  0.962989  0.781276  0.523270  -0.024406
    C   C113  0.281276  0.462989  0.976730  -0.024341
    C   C114  0.537011  0.281276  0.976730  -0.024393
    C   C115  0.718724  0.537011  0.976730  -0.024480
    C   C116  0.462989  0.718724  0.976730  -0.024474
    C   C117  0.281276  0.537011  0.023270  -0.024309
    C   C118  0.537011  0.718724  0.023270  -0.024520
    C   C119  0.718724  0.462989  0.023270  -0.024413
    C   C120  0.462989  0.281276  0.023270  -0.024411
    C   C121  0.813782  0.000000  0.500000  -0.108539
    C   C122  0.000000  0.813782  0.500000  -0.108560
    C   C123  0.186218  0.000000  0.500000  -0.108428
    C   C124  0.000000  0.186218  0.500000  -0.108520
    C   C125  0.313782  0.500000  0.000000  -0.108636
    C   C126  0.500000  0.313782  0.000000  -0.108517
    C   C127  0.686218  0.500000  0.000000  -0.108517
    C   C128  0.500000  0.686218  0.000000  -0.108409
    C   C129  0.685167  0.000000  0.500000  -0.054542
    C   C130  0.000000  0.685167  0.500000  -0.054529
    C   C131  0.314833  0.000000  0.500000  -0.054546
    C   C132  0.000000  0.314833  0.500000  -0.054534
    C   C133  0.185167  0.500000  0.000000  -0.054537
    C   C134  0.500000  0.185167  0.000000  -0.054531
    C   C135  0.814833  0.500000  0.000000  -0.054542
    C   C136  0.500000  0.814833  0.000000  -0.054557
    O   O33   0.015284  0.089029  0.471176  -0.608570
    O   O34   0.910971  0.015284  0.471176  -0.608546
    O   O35   0.984716  0.910971  0.471176  -0.608551
    O   O36   0.089029  0.984716  0.471176  -0.608545
    O   O37   0.015284  0.910971  0.528824  -0.608548
    O   O38   0.910971  0.984716  0.528824  -0.608535
    O   O39   0.984716  0.089029  0.528824  -0.608533
    O   O40   0.089029  0.015284  0.528824  -0.608523
    O   O41   0.515284  0.589029  0.971176  -0.608602
    O   O42   0.410972  0.515284  0.971176  -0.608644
    O   O43   0.484716  0.410971  0.971176  -0.608613
    O   O44   0.589029  0.484716  0.971176  -0.608631
    O   O45   0.515284  0.410971  0.028824  -0.608576
    O   O46   0.410972  0.484716  0.028824  -0.608595
    O   O47   0.484716  0.589029  0.028824  -0.608559
    O   O48   0.589029  0.515284  0.028824  -0.608588
    C   C137  0.000000  0.118163  0.500000  0.863977
    C   C138  0.881837  0.000000  0.500000  0.863978
    C   C139  0.000000  0.881837  0.500000  0.864008
    C   C140  0.118163  0.000000  0.500000  0.863906
    C   C141  0.500000  0.618163  0.000000  0.863937
    C   C142  0.381837  0.500000  0.000000  0.864115
    C   C143  0.500000  0.381837  0.000000  0.864027
    C   C144  0.618163  0.500000  0.000000  0.864044
    Cu  Cu9   0.000000  0.000000  0.466006  0.952724
    Cu  Cu10  0.000000  0.000000  0.533994  0.952684
    Cu  Cu11  0.500000  0.500000  0.966006  0.952749
    Cu  Cu12  0.500000  0.500000  0.033994  0.952648
    C   C145  0.813446  0.921056  0.452645  0.630540
    O   O49   0.854743  0.887278  0.463088  -0.482597
    C   C146  0.793903  0.916804  0.415616  -0.515023
    H   H65   0.758880  0.952860  0.409540  0.099579
    H   H66   0.774206  0.870164  0.410535  0.148567
    H   H67   0.834952  0.924078  0.398775  0.158853
    C   C147  0.078944  0.813446  0.452645  0.630405
    O   O50   0.112722  0.854743  0.463088  -0.482588
    C   C148  0.083196  0.793903  0.415616  -0.514730
    H   H68   0.047140  0.758880  0.409540  0.099472
    H   H69   0.129836  0.774206  0.410535  0.148503
    H   H70   0.075921  0.834952  0.398775  0.158794
    C   C149  0.186554  0.078944  0.452645  0.630598
    O   O51   0.145257  0.112722  0.463088  -0.482579
    C   C150  0.206097  0.083196  0.415616  -0.515049
    H   H71   0.241120  0.047140  0.409540  0.099594
    H   H72   0.225794  0.129836  0.410535  0.148565
    H   H73   0.165048  0.075921  0.398775  0.158848
    C   C151  0.921056  0.186554  0.452645  0.630536
    O   O52   0.887278  0.145257  0.463088  -0.482588
    C   C152  0.916804  0.206097  0.415616  -0.515038
    H   H74   0.952860  0.241120  0.409540  0.099585
    H   H75   0.870164  0.225794  0.410535  0.148567
    H   H76   0.924079  0.165048  0.398775  0.158857
    C   C153  0.813446  0.078944  0.547355  0.630427
    O   O53   0.854743  0.112722  0.536912  -0.482591
    C   C154  0.793903  0.083196  0.584384  -0.514730
    H   H77   0.758880  0.047140  0.590460  0.099472
    H   H78   0.774206  0.129836  0.589465  0.148500
    H   H79   0.834952  0.075921  0.601225  0.158791
    C   C155  0.078944  0.186554  0.547355  0.630561
    O   O54   0.112722  0.145257  0.536912  -0.482610
    C   C156  0.083196  0.206097  0.584384  -0.515014
    H   H80   0.047140  0.241120  0.590460  0.099576
    H   H81   0.129836  0.225794  0.589465  0.148563
    H   H82   0.075921  0.165048  0.601225  0.158849
    C   C157  0.186554  0.921055  0.547355  0.630550
    O   O55   0.145257  0.887278  0.536912  -0.482588
    C   C158  0.206097  0.916804  0.584384  -0.515023
    H   H83   0.241120  0.952860  0.590460  0.099583
    H   H84   0.225794  0.870164  0.589465  0.148560
    H   H85   0.165048  0.924078  0.601225  0.158851
    C   C159  0.921056  0.813446  0.547355  0.630557
    O   O56   0.887278  0.854743  0.536912  -0.482595
    C   C160  0.916804  0.793903  0.584384  -0.515028
    H   H86   0.952860  0.758880  0.590460  0.099580
    H   H87   0.870164  0.774206  0.589465  0.148566
    H   H88   0.924079  0.834952  0.601225  0.158854
    C   C161  0.313446  0.421056  0.952645  0.630522
    O   O57   0.354743  0.387278  0.963088  -0.482589
    C   C162  0.293903  0.416804  0.915616  -0.515042
    H   H89   0.258880  0.452860  0.909540  0.099582
    H   H90   0.274206  0.370164  0.910535  0.148572
    H   H91   0.334952  0.424079  0.898775  0.158862
    C   C163  0.578945  0.313446  0.952645  0.630466
    O   O58   0.612722  0.354743  0.963088  -0.482574
    C   C164  0.583196  0.293903  0.915616  -0.514751
    H   H92   0.547140  0.258880  0.909540  0.099487
    H   H93   0.629836  0.274206  0.910535  0.148498
    H   H94   0.575922  0.334952  0.898774  0.158787
    C   C165  0.686554  0.578944  0.952645  0.630603
    O   O59   0.645257  0.612722  0.963088  -0.482597
    C   C166  0.706097  0.583196  0.915616  -0.515041
    H   H95   0.741120  0.547140  0.909540  0.099588
    H   H96   0.725794  0.629836  0.910535  0.148564
    H   H97   0.665048  0.575921  0.898775  0.158848
    C   C167  0.421056  0.686554  0.952645  0.630581
    O   O60   0.387278  0.645257  0.963088  -0.482573
    C   C168  0.416804  0.706097  0.915616  -0.515052
    H   H98   0.452860  0.741120  0.909540  0.099593
    H   H99   0.370164  0.725794  0.910535  0.148567
    H   H100  0.424079  0.665047  0.898775  0.158848
    C   C169  0.313446  0.578944  0.047355  0.630419
    O   O61   0.354743  0.612722  0.036912  -0.482601
    C   C170  0.293903  0.583196  0.084384  -0.514731
    H   H101  0.258880  0.547140  0.090460  0.099473
    H   H102  0.274206  0.629836  0.089465  0.148503
    H   H103  0.334952  0.575921  0.101225  0.158794
    C   C171  0.578944  0.686554  0.047355  0.630608
    O   O62   0.612722  0.645257  0.036912  -0.482590
    C   C172  0.583196  0.706097  0.084384  -0.515043
    H   H104  0.547140  0.741120  0.090460  0.099593
    H   H105  0.629836  0.725794  0.089465  0.148564
    H   H106  0.575922  0.665047  0.101225  0.158844
    C   C173  0.686554  0.421056  0.047355  0.630546
    O   O63   0.645257  0.387278  0.036912  -0.482604
    C   C174  0.706097  0.416804  0.084384  -0.515028
    H   H107  0.741120  0.452860  0.090460  0.099584
    H   H108  0.725794  0.370164  0.089465  0.148565
    H   H109  0.665048  0.424078  0.101225  0.158855
    C   C175  0.421056  0.313446  0.047356  0.630560
    O   O64   0.387278  0.354743  0.036912  -0.482607
    C   C176  0.416804  0.293903  0.084384  -0.515061
    H   H110  0.452860  0.258880  0.090460  0.099593
    H   H111  0.370164  0.274206  0.089465  0.148582
    H   H112  0.424079  0.334952  0.101226  0.158863
