# Generated by REPEAT Assigner based on pymatgen
data_DB0-m2_o1_o3_f0_nbo.sym.46
_audit_creation_date              2022-05-24
_audit_creation_method            REPEAT_Assigner
_cell_length_a                    21.465450
_cell_length_b                    21.465450
_cell_length_c                    38.870958
_cell_angle_alpha                 90.000000
_cell_angle_beta                  90.000000
_cell_angle_gamma                 90.000000
_cell_volume                      17910.397930
_symmetry_space_group_name_H-M    P1
_symmetry_Int_Tables_number       1
loop_
    _symmetry_equiv_pos_site_id
    _symmetry_equiv_pos_as_xyz
    1  x,y,z
loop_
    _atom_site_type_symbol
    _atom_site_label
    _atom_site_fract_x
    _atom_site_fract_y
    _atom_site_fract_z
    _atom_type_partial_charge
    O   O1    0.588883  0.051491  0.490720  -0.505545
    O   O2    0.948509  0.588883  0.490720  -0.505522
    O   O3    0.411117  0.948510  0.490720  -0.505553
    O   O4    0.051491  0.411117  0.490720  -0.505546
    O   O5    0.588883  0.948510  0.509280  -0.505535
    O   O6    0.948509  0.411117  0.509280  -0.505529
    O   O7    0.411117  0.051491  0.509280  -0.505557
    O   O8    0.051491  0.588883  0.509280  -0.505534
    O   O9    0.088883  0.551490  0.990720  -0.505548
    O   O10   0.448509  0.088883  0.990720  -0.505587
    O   O11   0.911117  0.448509  0.990720  -0.505551
    O   O12   0.551490  0.911117  0.990720  -0.505501
    O   O13   0.088883  0.448509  0.009280  -0.505556
    O   O14   0.448509  0.911117  0.009280  -0.505591
    O   O15   0.911117  0.551490  0.009280  -0.505544
    O   O16   0.551491  0.088883  0.009280  -0.505503
    C   C1    0.617975  0.000000  0.500000  0.516671
    C   C2    0.000000  0.617975  0.500000  0.516644
    C   C3    0.382024  0.000000  0.500000  0.516686
    C   C4    0.000000  0.382025  0.500000  0.516661
    C   C5    0.117975  0.500000  0.000000  0.516684
    C   C6    0.500000  0.117975  0.000000  0.516667
    C   C7    0.882025  0.500000  0.000000  0.516707
    C   C8    0.500000  0.882025  0.000000  0.516705
    O   O17   0.517095  0.051186  0.549159  -0.517790
    O   O18   0.948814  0.517095  0.549159  -0.517779
    O   O19   0.482905  0.948814  0.549159  -0.517787
    O   O20   0.051186  0.482905  0.549159  -0.517795
    O   O21   0.517095  0.948814  0.450841  -0.517797
    O   O22   0.948814  0.482905  0.450841  -0.517795
    O   O23   0.482905  0.051186  0.450841  -0.517803
    O   O24   0.051186  0.517095  0.450841  -0.517804
    O   O25   0.017095  0.551186  0.049159  -0.517816
    O   O26   0.448814  0.017095  0.049159  -0.517850
    O   O27   0.982905  0.448814  0.049159  -0.517808
    O   O28   0.551186  0.982905  0.049159  -0.517765
    O   O29   0.017095  0.448814  0.950841  -0.517817
    O   O30   0.448814  0.982905  0.950841  -0.517841
    O   O31   0.982905  0.551186  0.950841  -0.517804
    O   O32   0.551186  0.017095  0.950841  -0.517778
    C   C9    0.500000  0.000000  0.565570  0.575984
    C   C10   0.000000  0.500000  0.565570  0.575962
    C   C11   0.500000  0.000000  0.434430  0.576008
    C   C12   0.000000  0.500000  0.434430  0.575987
    C   C13   0.000000  0.500000  0.065570  0.576018
    C   C14   0.500000  0.000000  0.065570  0.576009
    C   C15   0.000000  0.500000  0.934430  0.576046
    C   C16   0.500000  0.000000  0.934430  0.576042
    Cu  Cu1   0.500000  0.060844  0.500000  0.925579
    Cu  Cu2   0.939156  0.500000  0.500000  0.925497
    Cu  Cu3   0.500000  0.939157  0.500000  0.925442
    Cu  Cu4   0.060843  0.500000  0.500000  0.925506
    Cu  Cu5   0.000000  0.560843  0.000000  0.925525
    Cu  Cu6   0.439156  0.000000  0.000000  0.925354
    Cu  Cu7   0.000000  0.439156  0.000000  0.925518
    Cu  Cu8   0.560843  0.000000  0.000000  0.925663
    C   C17   0.552816  0.980793  0.877805  -0.058730
    C   C18   0.019207  0.552816  0.877805  -0.058720
    C   C19   0.447184  0.019207  0.877805  -0.058752
    C   C20   0.980793  0.447184  0.877805  -0.058739
    C   C21   0.552816  0.019207  0.122195  -0.058742
    C   C22   0.019207  0.447184  0.122195  -0.058758
    C   C23   0.447184  0.980793  0.122195  -0.058753
    C   C24   0.980793  0.552816  0.122195  -0.058738
    C   C25   0.052816  0.480793  0.377805  -0.058782
    C   C26   0.519207  0.052816  0.377805  -0.058763
    C   C27   0.947184  0.519207  0.377805  -0.058785
    C   C28   0.480793  0.947184  0.377805  -0.058781
    C   C29   0.052816  0.519207  0.622195  -0.058774
    C   C30   0.519207  0.947184  0.622195  -0.058776
    C   C31   0.947184  0.480793  0.622195  -0.058795
    C   C32   0.480793  0.052816  0.622195  -0.058773
    C   C33   0.552943  0.984222  0.842224  -0.161981
    C   C34   0.015778  0.552943  0.842224  -0.161990
    C   C35   0.447057  0.015778  0.842224  -0.161967
    C   C36   0.984222  0.447057  0.842224  -0.161977
    C   C37   0.552943  0.015778  0.157776  -0.161984
    C   C38   0.015778  0.447057  0.157776  -0.161968
    C   C39   0.447057  0.984222  0.157776  -0.161976
    C   C40   0.984222  0.552943  0.157776  -0.161983
    C   C41   0.052943  0.484222  0.342224  -0.161964
    C   C42   0.515778  0.052943  0.342224  -0.161976
    C   C43   0.947057  0.515778  0.342224  -0.161950
    C   C44   0.484222  0.947057  0.342224  -0.161944
    C   C45   0.052943  0.515778  0.657776  -0.161968
    C   C46   0.515778  0.947057  0.657776  -0.161950
    C   C47   0.947057  0.484222  0.657776  -0.161942
    C   C48   0.484222  0.052943  0.657776  -0.161965
    H   H1    0.595360  0.975085  0.828323  0.130090
    H   H2    0.024915  0.595360  0.828323  0.130088
    H   H3    0.404640  0.024915  0.828323  0.130080
    H   H4    0.975085  0.404640  0.828323  0.130080
    H   H5    0.595360  0.024915  0.171677  0.130088
    H   H6    0.024915  0.404640  0.171677  0.130080
    H   H7    0.404640  0.975085  0.171677  0.130081
    H   H8    0.975085  0.595360  0.171677  0.130090
    H   H9    0.095360  0.475085  0.328323  0.130083
    H   H10   0.524915  0.095360  0.328323  0.130082
    H   H11   0.904640  0.524915  0.328323  0.130073
    H   H12   0.475085  0.904640  0.328323  0.130074
    H   H13   0.095360  0.524915  0.671677  0.130081
    H   H14   0.524915  0.904640  0.671677  0.130074
    H   H15   0.904640  0.475085  0.671677  0.130075
    H   H16   0.475085  0.095360  0.671677  0.130083
    C   C49   0.500000  0.000000  0.824125  0.105430
    C   C50   0.000000  0.500000  0.824125  0.105437
    C   C51   0.500000  0.000000  0.175875  0.105434
    C   C52   0.000000  0.500000  0.175875  0.105433
    C   C53   0.000000  0.500000  0.324125  0.105441
    C   C54   0.500000  0.000000  0.324125  0.105440
    C   C55   0.000000  0.500000  0.675875  0.105442
    C   C56   0.500000  0.000000  0.675875  0.105439
    C   C57   0.500000  0.000000  0.896246  -0.032465
    C   C58   0.000000  0.500000  0.896246  -0.032488
    C   C59   0.500000  0.000000  0.103754  -0.032449
    C   C60   0.000000  0.500000  0.103754  -0.032452
    C   C61   0.000000  0.500000  0.396246  -0.032429
    C   C62   0.500000  0.000000  0.396246  -0.032453
    C   C63   0.000000  0.500000  0.603754  -0.032424
    C   C64   0.500000  0.000000  0.603754  -0.032447
    C   C65   0.461409  0.039703  0.767722  -0.129280
    C   C66   0.960297  0.461409  0.767722  -0.129276
    C   C67   0.538591  0.960297  0.767722  -0.129281
    C   C68   0.039703  0.538591  0.767722  -0.129294
    C   C69   0.461409  0.960297  0.232278  -0.129267
    C   C70   0.960297  0.538591  0.232278  -0.129271
    C   C71   0.538591  0.039703  0.232278  -0.129283
    C   C72   0.039703  0.461409  0.232278  -0.129274
    C   C73   0.961409  0.539703  0.267722  -0.129283
    C   C74   0.460297  0.961409  0.267722  -0.129279
    C   C75   0.038591  0.460297  0.267722  -0.129278
    C   C76   0.539703  0.038591  0.267722  -0.129282
    C   C77   0.961409  0.460297  0.732278  -0.129265
    C   C78   0.460297  0.038591  0.732278  -0.129278
    C   C79   0.038591  0.539703  0.732278  -0.129267
    C   C80   0.539703  0.961409  0.732278  -0.129274
    H   H17   0.431676  0.072859  0.780595  0.120561
    H   H18   0.927141  0.431676  0.780595  0.120558
    H   H19   0.568324  0.927141  0.780595  0.120559
    H   H20   0.072859  0.568324  0.780595  0.120563
    H   H21   0.431675  0.927141  0.219405  0.120557
    H   H22   0.927141  0.568324  0.219405  0.120557
    H   H23   0.568324  0.072859  0.219405  0.120560
    H   H24   0.072859  0.431676  0.219405  0.120559
    H   H25   0.931676  0.572859  0.280595  0.120564
    H   H26   0.427140  0.931676  0.280595  0.120557
    H   H27   0.068324  0.427141  0.280595  0.120559
    H   H28   0.572859  0.068324  0.280595  0.120565
    H   H29   0.931676  0.427141  0.719405  0.120554
    H   H30   0.427140  0.068325  0.719405  0.120557
    H   H31   0.068324  0.572859  0.719405  0.120561
    H   H32   0.572859  0.931676  0.719405  0.120562
    C   C81   0.500000  0.000000  0.713989  0.059605
    C   C82   0.000000  0.500000  0.713989  0.059594
    C   C83   0.500000  0.000000  0.286011  0.059606
    C   C84   0.000000  0.500000  0.286011  0.059605
    C   C85   0.000000  0.500000  0.213989  0.059620
    C   C86   0.500000  0.000000  0.213989  0.059626
    C   C87   0.000000  0.500000  0.786011  0.059629
    C   C88   0.500000  0.000000  0.786011  0.059628
    C   C89   0.718116  0.948590  0.488258  -0.191100
    C   C90   0.051410  0.718116  0.488258  -0.191095
    C   C91   0.281884  0.051410  0.488258  -0.191095
    C   C92   0.948590  0.281884  0.488258  -0.191102
    C   C93   0.718116  0.051410  0.511742  -0.191086
    C   C94   0.051410  0.281884  0.511742  -0.191095
    C   C95   0.281884  0.948590  0.511742  -0.191095
    C   C96   0.948590  0.718116  0.511742  -0.191086
    C   C97   0.218116  0.448590  0.988258  -0.191097
    C   C98   0.551410  0.218116  0.988258  -0.191095
    C   C99   0.781884  0.551410  0.988258  -0.191092
    C   C100  0.448590  0.781884  0.988258  -0.191097
    C   C101  0.218116  0.551410  0.011742  -0.191095
    C   C102  0.551410  0.781884  0.011742  -0.191093
    C   C103  0.781884  0.448590  0.011742  -0.191089
    C   C104  0.448590  0.218116  0.011742  -0.191102
    H   H33   0.693193  0.908330  0.478797  0.129342
    H   H34   0.091670  0.693193  0.478797  0.129343
    H   H35   0.306807  0.091670  0.478797  0.129348
    H   H36   0.908330  0.306807  0.478797  0.129347
    H   H37   0.693193  0.091670  0.521203  0.129338
    H   H38   0.091670  0.306807  0.521203  0.129345
    H   H39   0.306806  0.908330  0.521203  0.129345
    H   H40   0.908330  0.693193  0.521203  0.129337
    H   H41   0.193193  0.408330  0.978797  0.129343
    H   H42   0.591670  0.193193  0.978797  0.129344
    H   H43   0.806807  0.591670  0.978797  0.129346
    H   H44   0.408330  0.806807  0.978797  0.129346
    H   H45   0.193193  0.591670  0.021203  0.129340
    H   H46   0.591670  0.806807  0.021203  0.129343
    H   H47   0.806807  0.408330  0.021203  0.129340
    H   H48   0.408330  0.193193  0.021203  0.129343
    C   C105  0.782309  0.949294  0.487368  -0.034776
    C   C106  0.050706  0.782309  0.487368  -0.034788
    C   C107  0.217691  0.050706  0.487368  -0.034804
    C   C108  0.949294  0.217691  0.487368  -0.034785
    C   C109  0.782309  0.050706  0.512633  -0.034801
    C   C110  0.050706  0.217691  0.512633  -0.034807
    C   C111  0.217691  0.949294  0.512633  -0.034798
    C   C112  0.949294  0.782309  0.512633  -0.034790
    C   C113  0.282309  0.449294  0.987368  -0.034793
    C   C114  0.550706  0.282309  0.987368  -0.034802
    C   C115  0.717691  0.550706  0.987368  -0.034798
    C   C116  0.449294  0.717691  0.987368  -0.034791
    C   C117  0.282309  0.550706  0.012633  -0.034809
    C   C118  0.550706  0.717691  0.012633  -0.034806
    C   C119  0.717691  0.449294  0.012633  -0.034801
    C   C120  0.449294  0.282309  0.012633  -0.034802
    H   H49   0.807311  0.909265  0.477665  0.108997
    H   H50   0.090735  0.807311  0.477665  0.108997
    H   H51   0.192689  0.090736  0.477665  0.109001
    H   H52   0.909265  0.192689  0.477665  0.108996
    H   H53   0.807311  0.090735  0.522335  0.109006
    H   H54   0.090735  0.192689  0.522335  0.109006
    H   H55   0.192689  0.909265  0.522335  0.109005
    H   H56   0.909265  0.807311  0.522335  0.109003
    H   H57   0.307311  0.409265  0.977665  0.108995
    H   H58   0.590735  0.307311  0.977665  0.109001
    H   H59   0.692689  0.590735  0.977665  0.108997
    H   H60   0.409265  0.692689  0.977665  0.108993
    H   H61   0.307311  0.590735  0.022335  0.109007
    H   H62   0.590735  0.692689  0.022335  0.109005
    H   H63   0.692689  0.409265  0.022335  0.109001
    H   H64   0.409265  0.307311  0.022335  0.109004
    C   C121  0.814463  0.000000  0.500000  -0.131586
    C   C122  0.000000  0.814463  0.500000  -0.131584
    C   C123  0.185537  0.000000  0.500000  -0.131540
    C   C124  0.000000  0.185537  0.500000  -0.131544
    C   C125  0.314463  0.500000  0.000000  -0.131522
    C   C126  0.500000  0.314463  0.000000  -0.131526
    C   C127  0.685537  0.500000  0.000000  -0.131518
    C   C128  0.500000  0.685537  0.000000  -0.131521
    C   C129  0.685929  0.000000  0.500000  0.162777
    C   C130  0.000000  0.685929  0.500000  0.162787
    C   C131  0.314071  0.000000  0.500000  0.162775
    C   C132  0.000000  0.314071  0.500000  0.162787
    C   C133  0.185929  0.500000  0.000000  0.162778
    C   C134  0.500000  0.185929  0.000000  0.162791
    C   C135  0.814071  0.500000  0.000000  0.162757
    C   C136  0.500000  0.814071  0.000000  0.162764
    O   O33   0.980401  0.088534  0.472007  -0.648595
    O   O34   0.911466  0.980401  0.472007  -0.648588
    O   O35   0.019599  0.911466  0.472007  -0.648584
    O   O36   0.088534  0.019599  0.472007  -0.648594
    O   O37   0.980401  0.911466  0.527993  -0.648583
    O   O38   0.911466  0.019599  0.527993  -0.648579
    O   O39   0.019599  0.088534  0.527993  -0.648587
    O   O40   0.088534  0.980401  0.527993  -0.648591
    O   O41   0.480401  0.588534  0.972007  -0.648574
    O   O42   0.411466  0.480401  0.972007  -0.648583
    O   O43   0.519599  0.411466  0.972007  -0.648586
    O   O44   0.588534  0.519599  0.972007  -0.648574
    O   O45   0.480401  0.411466  0.027993  -0.648577
    O   O46   0.411466  0.519599  0.027993  -0.648580
    O   O47   0.519599  0.588534  0.027993  -0.648568
    O   O48   0.588534  0.480401  0.027993  -0.648568
    C   C137  0.000000  0.117618  0.500000  0.824139
    C   C138  0.882382  0.000000  0.500000  0.824181
    C   C139  0.000000  0.882382  0.500000  0.824182
    C   C140  0.117618  0.000000  0.500000  0.824141
    C   C141  0.500000  0.617618  0.000000  0.824089
    C   C142  0.382382  0.500000  0.000000  0.824108
    C   C143  0.500000  0.382382  0.000000  0.824114
    C   C144  0.617618  0.500000  0.000000  0.824087
    Cu  Cu9   0.000000  0.000000  0.466658  1.004054
    Cu  Cu10  0.000000  0.000000  0.533342  1.004079
    Cu  Cu11  0.500000  0.500000  0.966658  1.004047
    Cu  Cu12  0.500000  0.500000  0.033342  1.004140
    C   C145  0.609805  0.954138  0.894996  0.705577
    F   F1    0.646942  0.923719  0.871302  -0.231419
    F   F2    0.592766  0.911015  0.919677  -0.238893
    F   F3    0.644568  0.001331  0.909741  -0.230540
    C   C146  0.045862  0.609805  0.894996  0.705598
    F   F4    0.076281  0.646942  0.871302  -0.231419
    F   F5    0.088985  0.592766  0.919677  -0.238904
    F   F6    0.998669  0.644568  0.909741  -0.230549
    C   C147  0.390195  0.045862  0.894996  0.705610
    F   F7    0.353058  0.076280  0.871302  -0.231416
    F   F8    0.407234  0.088985  0.919677  -0.238907
    F   F9    0.355432  0.998669  0.909741  -0.230552
    C   C148  0.954138  0.390195  0.894996  0.705614
    F   F10   0.923720  0.353058  0.871302  -0.231418
    F   F11   0.911015  0.407234  0.919677  -0.238905
    F   F12   0.001331  0.355432  0.909741  -0.230553
    C   C149  0.609805  0.045862  0.105004  0.705619
    F   F13   0.646942  0.076280  0.128698  -0.231421
    F   F14   0.592766  0.088985  0.080323  -0.238911
    F   F15   0.644568  0.998669  0.090259  -0.230553
    C   C150  0.045862  0.390195  0.105004  0.705621
    F   F16   0.076280  0.353058  0.128698  -0.231420
    F   F17   0.088985  0.407234  0.080323  -0.238912
    F   F18   0.998669  0.355432  0.090259  -0.230553
    C   C151  0.390195  0.954138  0.105004  0.705614
    F   F19   0.353058  0.923719  0.128698  -0.231421
    F   F20   0.407234  0.911015  0.080323  -0.238905
    F   F21   0.355432  0.001331  0.090259  -0.230551
    C   C152  0.954138  0.609805  0.105004  0.705584
    F   F22   0.923719  0.646942  0.128698  -0.231420
    F   F23   0.911015  0.592766  0.080323  -0.238895
    F   F24   0.001331  0.644568  0.090259  -0.230541
    C   C153  0.109805  0.454138  0.394996  0.705638
    F   F25   0.146942  0.423720  0.371302  -0.231419
    F   F26   0.092766  0.411015  0.419677  -0.238912
    F   F27   0.144568  0.501331  0.409741  -0.230559
    C   C154  0.545862  0.109805  0.394996  0.705643
    F   F28   0.576280  0.146942  0.371302  -0.231420
    F   F29   0.588985  0.092766  0.419677  -0.238917
    F   F30   0.498669  0.144568  0.409741  -0.230564
    C   C155  0.890195  0.545862  0.394996  0.705635
    F   F31   0.853058  0.576281  0.371302  -0.231421
    F   F32   0.907234  0.588985  0.419677  -0.238910
    F   F33   0.855432  0.498669  0.409741  -0.230556
    C   C156  0.454138  0.890195  0.394996  0.705621
    F   F34   0.423719  0.853058  0.371302  -0.231417
    F   F35   0.411015  0.907234  0.419677  -0.238907
    F   F36   0.501331  0.855432  0.409741  -0.230554
    C   C157  0.109805  0.545862  0.605004  0.705639
    F   F37   0.146942  0.576281  0.628698  -0.231423
    F   F38   0.092766  0.588985  0.580323  -0.238911
    F   F39   0.144568  0.498669  0.590259  -0.230560
    C   C158  0.545862  0.890195  0.605004  0.705627
    F   F40   0.576281  0.853058  0.628698  -0.231421
    F   F41   0.588985  0.907234  0.580323  -0.238907
    F   F42   0.498669  0.855432  0.590259  -0.230558
    C   C159  0.890195  0.454138  0.605004  0.705634
    F   F43   0.853058  0.423720  0.628698  -0.231418
    F   F44   0.907234  0.411015  0.580323  -0.238908
    F   F45   0.855432  0.501331  0.590259  -0.230559
    C   C160  0.454138  0.109805  0.605004  0.705636
    F   F46   0.423720  0.146942  0.628698  -0.231418
    F   F47   0.411015  0.092766  0.580323  -0.238911
    F   F48   0.501331  0.144568  0.590259  -0.230563
