# Generated by REPEAT Assigner based on pymatgen
data_DB0-m2_o1_o3_f0_nbo.sym.72
_audit_creation_date              2022-05-24
_audit_creation_method            REPEAT_Assigner
_cell_length_a                    21.577643
_cell_length_b                    21.577643
_cell_length_c                    38.568345
_cell_angle_alpha                 90.000000
_cell_angle_beta                  90.000000
_cell_angle_gamma                 90.000000
_cell_volume                      17957.216123
_symmetry_space_group_name_H-M    P1
_symmetry_Int_Tables_number       1
loop_
    _symmetry_equiv_pos_site_id
    _symmetry_equiv_pos_as_xyz
    1  x,y,z
loop_
    _atom_site_type_symbol
    _atom_site_label
    _atom_site_fract_x
    _atom_site_fract_y
    _atom_site_fract_z
    _atom_type_partial_charge
    O   O1    0.588216  0.050855  0.509415  -0.600937
    O   O2    0.949145  0.588216  0.509415  -0.600939
    O   O3    0.411784  0.949145  0.509415  -0.600937
    O   O4    0.050855  0.411784  0.509415  -0.600942
    O   O5    0.588187  0.948973  0.489471  -0.585174
    O   O6    0.948973  0.411813  0.489471  -0.585179
    O   O7    0.411813  0.051027  0.489471  -0.585176
    O   O8    0.051027  0.588187  0.489471  -0.585180
    O   O9    0.088216  0.550855  0.009415  -0.600931
    O   O10   0.449145  0.088216  0.009415  -0.600932
    O   O11   0.911784  0.449145  0.009415  -0.600932
    O   O12   0.550855  0.911784  0.009415  -0.600933
    O   O13   0.088187  0.448973  0.989471  -0.585164
    O   O14   0.448973  0.911813  0.989471  -0.585170
    O   O15   0.911813  0.551027  0.989471  -0.585166
    O   O16   0.551027  0.088187  0.989471  -0.585167
    C   C1    0.617174  0.999832  0.499564  0.711016
    C   C2    0.000168  0.617174  0.499564  0.711020
    C   C3    0.382826  0.000168  0.499564  0.711019
    C   C4    0.999832  0.382826  0.499564  0.711021
    C   C5    0.117174  0.499832  0.999564  0.710991
    C   C6    0.500168  0.117174  0.999564  0.710989
    C   C7    0.882826  0.500168  0.999564  0.710998
    C   C8    0.499832  0.882826  0.999564  0.710997
    O   O17   0.482330  0.050961  0.548890  -0.598201
    O   O18   0.949039  0.482330  0.548890  -0.598200
    O   O19   0.517670  0.949039  0.548890  -0.598199
    O   O20   0.050961  0.517670  0.548890  -0.598203
    O   O21   0.482283  0.949049  0.449962  -0.601726
    O   O22   0.949049  0.517717  0.449962  -0.601728
    O   O23   0.517717  0.050951  0.449962  -0.601728
    O   O24   0.050951  0.482283  0.449962  -0.601730
    O   O25   0.982330  0.550961  0.048890  -0.598191
    O   O26   0.449039  0.982330  0.048890  -0.598193
    O   O27   0.017670  0.449039  0.048890  -0.598190
    O   O28   0.550961  0.017670  0.048890  -0.598192
    O   O29   0.982283  0.449049  0.949962  -0.601742
    O   O30   0.449049  0.017717  0.949962  -0.601746
    O   O31   0.017717  0.550951  0.949962  -0.601743
    O   O32   0.550951  0.982283  0.949962  -0.601745
    C   C9    0.500000  0.000000  0.565172  0.713549
    C   C10   0.000000  0.500000  0.565172  0.713552
    C   C11   0.500000  0.000000  0.433681  0.682231
    C   C12   0.000000  0.500000  0.433681  0.682234
    C   C13   0.000000  0.500000  0.065172  0.713595
    C   C14   0.500000  0.000000  0.065172  0.713594
    C   C15   0.000000  0.500000  0.933681  0.682258
    C   C16   0.500000  0.000000  0.933681  0.682258
    Cu  Cu1   0.500031  0.060453  0.499427  0.953018
    Cu  Cu2   0.939547  0.500031  0.499427  0.953005
    Cu  Cu3   0.499969  0.939547  0.499427  0.953014
    Cu  Cu4   0.060453  0.499969  0.499427  0.953010
    Cu  Cu5   0.000031  0.560453  0.999427  0.953001
    Cu  Cu6   0.439547  0.000031  0.999427  0.952987
    Cu  Cu7   0.999969  0.439547  0.999427  0.952996
    Cu  Cu8   0.560453  0.999969  0.999427  0.952993
    C   C17   0.554581  0.991439  0.877609  -0.093073
    C   C18   0.008561  0.554581  0.877609  -0.093068
    C   C19   0.445419  0.008561  0.877609  -0.093071
    C   C20   0.991439  0.445419  0.877609  -0.093068
    C   C21   0.554498  0.009079  0.121242  -0.041630
    C   C22   0.009079  0.445502  0.121242  -0.041630
    C   C23   0.445502  0.990921  0.121242  -0.041630
    C   C24   0.990921  0.554498  0.121242  -0.041627
    C   C25   0.054581  0.491439  0.377609  -0.093058
    C   C26   0.508561  0.054581  0.377609  -0.093057
    C   C27   0.945419  0.508561  0.377609  -0.093058
    C   C28   0.491439  0.945419  0.377609  -0.093057
    C   C29   0.054498  0.509079  0.621242  -0.041631
    C   C30   0.509079  0.945502  0.621242  -0.041633
    C   C31   0.945502  0.490921  0.621242  -0.041633
    C   C32   0.490921  0.054498  0.621242  -0.041633
    H   H1    0.598028  0.985318  0.891103  0.118117
    H   H2    0.014682  0.598028  0.891103  0.118117
    H   H3    0.401972  0.014682  0.891103  0.118118
    H   H4    0.985318  0.401972  0.891103  0.118117
    H   H5    0.597885  0.015634  0.107752  0.109909
    H   H6    0.015634  0.402115  0.107752  0.109909
    H   H7    0.402115  0.984366  0.107752  0.109909
    H   H8    0.984366  0.597885  0.107752  0.109909
    H   H9    0.098028  0.485318  0.391103  0.118110
    H   H10   0.514682  0.098028  0.391103  0.118109
    H   H11   0.901972  0.514682  0.391103  0.118110
    H   H12   0.485318  0.901972  0.391103  0.118109
    H   H13   0.097885  0.515634  0.607752  0.109909
    H   H14   0.515634  0.902115  0.607752  0.109910
    H   H15   0.902115  0.484366  0.607752  0.109910
    H   H16   0.484366  0.097885  0.607752  0.109911
    C   C33   0.554634  0.991786  0.841872  -0.153039
    C   C34   0.008214  0.554634  0.841872  -0.153046
    C   C35   0.445366  0.008214  0.841872  -0.153043
    C   C36   0.991786  0.445366  0.841872  -0.153045
    C   C37   0.554551  0.008745  0.156977  -0.159448
    C   C38   0.008745  0.445449  0.156977  -0.159448
    C   C39   0.445449  0.991255  0.156977  -0.159447
    C   C40   0.991255  0.554551  0.156977  -0.159451
    C   C41   0.054634  0.491786  0.341872  -0.153049
    C   C42   0.508214  0.054634  0.341872  -0.153052
    C   C43   0.945366  0.508214  0.341872  -0.153049
    C   C44   0.491786  0.945366  0.341872  -0.153051
    C   C45   0.054551  0.508745  0.656977  -0.159459
    C   C46   0.508745  0.945449  0.656977  -0.159457
    C   C47   0.945449  0.491255  0.656977  -0.159456
    C   C48   0.491255  0.054551  0.656977  -0.159459
    H   H17   0.598322  0.986870  0.828484  0.112074
    H   H18   0.013131  0.598322  0.828484  0.112075
    H   H19   0.401678  0.013131  0.828484  0.112074
    H   H20   0.986869  0.401678  0.828484  0.112074
    H   H21   0.598186  0.014094  0.170367  0.107602
    H   H22   0.014094  0.401814  0.170367  0.107602
    H   H23   0.401814  0.985906  0.170367  0.107602
    H   H24   0.985906  0.598186  0.170367  0.107603
    H   H25   0.098322  0.486870  0.328484  0.112076
    H   H26   0.513131  0.098322  0.328484  0.112077
    H   H27   0.901678  0.513131  0.328484  0.112076
    H   H28   0.486869  0.901678  0.328484  0.112076
    H   H29   0.098186  0.514094  0.670367  0.107607
    H   H30   0.514094  0.901814  0.670367  0.107606
    H   H31   0.901814  0.485906  0.670367  0.107606
    H   H32   0.485906  0.098186  0.670367  0.107607
    C   C49   0.500000  0.000000  0.823670  0.081561
    C   C50   0.000000  0.500000  0.823670  0.081563
    C   C51   0.500000  0.000000  0.175177  0.068879
    C   C52   0.000000  0.500000  0.175177  0.068880
    C   C53   0.000000  0.500000  0.323670  0.081563
    C   C54   0.500000  0.000000  0.323670  0.081568
    C   C55   0.000000  0.500000  0.675177  0.068883
    C   C56   0.500000  0.000000  0.675177  0.068886
    C   C57   0.500000  0.000000  0.895688  -0.031192
    C   C58   0.000000  0.500000  0.895688  -0.031192
    C   C59   0.500000  0.000000  0.103163  -0.107227
    C   C60   0.000000  0.500000  0.103163  -0.107226
    C   C61   0.000000  0.500000  0.395688  -0.031193
    C   C62   0.500000  0.000000  0.395688  -0.031191
    C   C63   0.000000  0.500000  0.603163  -0.107193
    C   C64   0.500000  0.000000  0.603163  -0.107191
    C   C65   0.460838  0.038904  0.767288  -0.144337
    C   C66   0.961096  0.460838  0.767288  -0.144336
    C   C67   0.539162  0.961096  0.767288  -0.144333
    C   C68   0.038904  0.539162  0.767288  -0.144338
    C   C69   0.461253  0.960683  0.231556  -0.166015
    C   C70   0.960683  0.538747  0.231556  -0.166016
    C   C71   0.538747  0.039317  0.231556  -0.166016
    C   C72   0.039317  0.461253  0.231556  -0.166019
    C   C73   0.960838  0.538904  0.267288  -0.144325
    C   C74   0.461096  0.960838  0.267288  -0.144325
    C   C75   0.039162  0.461096  0.267288  -0.144321
    C   C76   0.538904  0.039162  0.267288  -0.144326
    C   C77   0.961253  0.460683  0.731556  -0.166004
    C   C78   0.460683  0.038747  0.731556  -0.166005
    C   C79   0.038747  0.539317  0.731556  -0.166004
    C   C80   0.539317  0.961253  0.731556  -0.166006
    H   H33   0.430507  0.070740  0.780667  0.113394
    H   H34   0.929260  0.430507  0.780667  0.113394
    H   H35   0.569493  0.929260  0.780667  0.113392
    H   H36   0.070740  0.569493  0.780667  0.113395
    H   H37   0.431261  0.928529  0.218174  0.125064
    H   H38   0.928529  0.568739  0.218174  0.125064
    H   H39   0.568739  0.071471  0.218174  0.125064
    H   H40   0.071471  0.431261  0.218174  0.125065
    H   H41   0.930507  0.570740  0.280667  0.113390
    H   H42   0.429260  0.930507  0.280667  0.113389
    H   H43   0.069493  0.429260  0.280667  0.113388
    H   H44   0.570740  0.069493  0.280667  0.113390
    H   H45   0.931261  0.428529  0.718174  0.125062
    H   H46   0.428529  0.068739  0.718174  0.125061
    H   H47   0.068739  0.571471  0.718174  0.125062
    H   H48   0.571471  0.931261  0.718174  0.125062
    C   C81   0.500000  0.000000  0.713346  0.112520
    C   C82   0.000000  0.500000  0.713346  0.112520
    C   C83   0.500000  0.000000  0.285499  0.088934
    C   C84   0.000000  0.500000  0.285499  0.088933
    C   C85   0.000000  0.500000  0.213346  0.112527
    C   C86   0.500000  0.000000  0.213346  0.112530
    C   C87   0.000000  0.500000  0.785499  0.088935
    C   C88   0.500000  0.000000  0.785499  0.088936
    C   C89   0.717433  0.964740  0.476596  -0.212124
    C   C90   0.035260  0.717433  0.476596  -0.212123
    C   C91   0.282567  0.035260  0.476596  -0.212125
    C   C92   0.964740  0.282567  0.476596  -0.212126
    C   C93   0.716168  0.033185  0.524838  -0.220751
    C   C94   0.033185  0.283832  0.524838  -0.220752
    C   C95   0.283832  0.966815  0.524838  -0.220751
    C   C96   0.966815  0.716168  0.524838  -0.220745
    C   C97   0.217433  0.464740  0.976596  -0.212129
    C   C98   0.535260  0.217433  0.976596  -0.212134
    C   C99   0.782567  0.535260  0.976596  -0.212130
    C   C100  0.464740  0.782567  0.976596  -0.212135
    C   C101  0.216168  0.533185  0.024838  -0.220739
    C   C102  0.533185  0.783832  0.024838  -0.220744
    C   C103  0.783832  0.466815  0.024838  -0.220738
    C   C104  0.466815  0.216168  0.024838  -0.220743
    H   H49   0.693008  0.938641  0.456964  0.120444
    H   H50   0.061359  0.693008  0.456964  0.120444
    H   H51   0.306992  0.061359  0.456964  0.120445
    H   H52   0.938641  0.306992  0.456964  0.120445
    H   H53   0.690593  0.060934  0.543257  0.136342
    H   H54   0.060934  0.309407  0.543257  0.136341
    H   H55   0.309407  0.939066  0.543257  0.136342
    H   H56   0.939066  0.690593  0.543257  0.136339
    H   H57   0.193008  0.438641  0.956964  0.120442
    H   H58   0.561359  0.193008  0.956964  0.120442
    H   H59   0.806992  0.561359  0.956964  0.120443
    H   H60   0.438641  0.806992  0.956964  0.120443
    H   H61   0.190593  0.560934  0.043257  0.136341
    H   H62   0.560934  0.809407  0.043257  0.136341
    H   H63   0.809407  0.439066  0.043257  0.136341
    H   H64   0.439066  0.190593  0.043257  0.136340
    C   C105  0.781360  0.964836  0.476682  0.032258
    C   C106  0.035164  0.781360  0.476682  0.032258
    C   C107  0.218640  0.035164  0.476682  0.032260
    C   C108  0.964836  0.218640  0.476682  0.032261
    C   C109  0.780029  0.031300  0.526682  0.091146
    C   C110  0.031300  0.219971  0.526682  0.091146
    C   C111  0.219971  0.968700  0.526682  0.091146
    C   C112  0.968700  0.780029  0.526682  0.091141
    C   C113  0.281360  0.464836  0.976682  0.032244
    C   C114  0.535164  0.281360  0.976682  0.032251
    C   C115  0.718640  0.535164  0.976682  0.032251
    C   C116  0.464836  0.718640  0.976682  0.032255
    C   C117  0.280029  0.531300  0.026682  0.091116
    C   C118  0.531300  0.719971  0.026682  0.091123
    C   C119  0.719971  0.468700  0.026682  0.091117
    C   C120  0.468700  0.280029  0.026682  0.091120
    C   C121  0.813586  0.998778  0.501727  -0.073194
    C   C122  0.001222  0.813586  0.501727  -0.073195
    C   C123  0.186414  0.001222  0.501727  -0.073195
    C   C124  0.998778  0.186414  0.501727  -0.073196
    C   C125  0.313586  0.498778  0.001727  -0.073155
    C   C126  0.501222  0.313586  0.001727  -0.073159
    C   C127  0.686414  0.501222  0.001727  -0.073156
    C   C128  0.498778  0.686414  0.001727  -0.073159
    C   C129  0.684819  0.999344  0.500279  0.031362
    C   C130  0.000656  0.684819  0.500279  0.031358
    C   C131  0.315181  0.000656  0.500279  0.031362
    C   C132  0.999344  0.315181  0.500279  0.031362
    C   C133  0.184819  0.499344  0.000279  0.031367
    C   C134  0.500656  0.184819  0.000279  0.031370
    C   C135  0.815181  0.500656  0.000279  0.031362
    C   C136  0.499344  0.815181  0.000279  0.031365
    O   O33   0.017291  0.088528  0.474103  -0.498565
    O   O34   0.911472  0.017291  0.474103  -0.498564
    O   O35   0.982709  0.911472  0.474103  -0.498565
    O   O36   0.088528  0.982709  0.474103  -0.498565
    O   O37   0.015968  0.911134  0.531219  -0.490261
    O   O38   0.911134  0.984032  0.531219  -0.490260
    O   O39   0.984032  0.088866  0.531219  -0.490261
    O   O40   0.088866  0.015968  0.531219  -0.490260
    O   O41   0.517291  0.588528  0.974103  -0.498518
    O   O42   0.411472  0.517291  0.974103  -0.498519
    O   O43   0.482709  0.411472  0.974103  -0.498521
    O   O44   0.588528  0.482709  0.974103  -0.498517
    O   O45   0.515968  0.411134  0.031219  -0.490201
    O   O46   0.411134  0.484032  0.031219  -0.490201
    O   O47   0.484032  0.588866  0.031219  -0.490199
    O   O48   0.588866  0.515968  0.031219  -0.490198
    C   C137  0.999289  0.118041  0.502289  0.586636
    C   C138  0.881959  0.999289  0.502289  0.586637
    C   C139  0.000711  0.881959  0.502289  0.586640
    C   C140  0.118041  0.000711  0.502289  0.586635
    C   C141  0.499289  0.618041  0.002289  0.586562
    C   C142  0.381959  0.499289  0.002289  0.586562
    C   C143  0.500711  0.381959  0.002289  0.586567
    C   C144  0.618041  0.500711  0.002289  0.586558
    Cu  Cu9   0.000000  0.000000  0.468864  0.837472
    Cu  Cu10  0.000000  0.000000  0.536495  0.844252
    Cu  Cu11  0.500000  0.500000  0.968864  0.837499
    Cu  Cu12  0.500000  0.500000  0.036495  0.844314
    C   C145  0.812851  0.927553  0.450205  0.214360
    C   C146  0.808401  0.863474  0.450487  0.060450
    Cl  Cl1   0.765677  0.824510  0.482477  -0.084526
    C   C147  0.836850  0.829163  0.424869  -0.196180
    C   C148  0.867862  0.858374  0.398279  -0.042091
    C   C149  0.869508  0.922100  0.396907  -0.132851
    C   C150  0.841193  0.956492  0.422480  -0.231963
    H   H65   0.834163  0.779157  0.425433  0.119794
    H   H66   0.889935  0.831315  0.378187  0.097775
    H   H67   0.892573  0.945157  0.375636  0.112344
    H   H68   0.841090  0.006412  0.420732  0.143818
    C   C151  0.072447  0.812851  0.450205  0.214358
    C   C152  0.136526  0.808401  0.450487  0.060451
    Cl  Cl2   0.175490  0.765677  0.482477  -0.084526
    C   C153  0.170837  0.836850  0.424869  -0.196180
    C   C154  0.141626  0.867862  0.398279  -0.042092
    C   C155  0.077900  0.869508  0.396907  -0.132852
    C   C156  0.043508  0.841193  0.422480  -0.231961
    H   H69   0.220843  0.834163  0.425433  0.119795
    H   H70   0.168685  0.889935  0.378187  0.097775
    H   H71   0.054843  0.892573  0.375636  0.112343
    H   H72   0.993588  0.841090  0.420732  0.143818
    C   C157  0.187149  0.072447  0.450205  0.214357
    C   C158  0.191599  0.136526  0.450487  0.060452
    Cl  Cl3   0.234323  0.175490  0.482477  -0.084526
    C   C159  0.163150  0.170837  0.424869  -0.196182
    C   C160  0.132138  0.141626  0.398279  -0.042091
    C   C161  0.130492  0.077900  0.396907  -0.132852
    C   C162  0.158807  0.043508  0.422480  -0.231962
    H   H73   0.165837  0.220843  0.425433  0.119796
    H   H74   0.110065  0.168685  0.378187  0.097775
    H   H75   0.107427  0.054843  0.375636  0.112344
    H   H76   0.158910  0.993588  0.420732  0.143818
    C   C163  0.927553  0.187149  0.450205  0.214357
    C   C164  0.863474  0.191599  0.450487  0.060450
    Cl  Cl4   0.824510  0.234323  0.482477  -0.084526
    C   C165  0.829163  0.163150  0.424869  -0.196180
    C   C166  0.858374  0.132138  0.398279  -0.042090
    C   C167  0.922100  0.130492  0.396907  -0.132852
    C   C168  0.956492  0.158807  0.422480  -0.231962
    H   H77   0.779157  0.165837  0.425433  0.119795
    H   H78   0.831315  0.110065  0.378187  0.097774
    H   H79   0.945157  0.107427  0.375636  0.112343
    H   H80   0.006412  0.158910  0.420732  0.143818
    C   C169  0.810374  0.069165  0.553300  0.131113
    C   C170  0.797813  0.060513  0.588237  -0.001658
    Cl  Cl5   0.750368  0.999839  0.602735  -0.093317
    C   C171  0.823643  0.099629  0.612531  -0.081247
    C   C172  0.860772  0.148145  0.602242  -0.176567
    C   C173  0.872547  0.157358  0.567557  -0.030574
    C   C174  0.847725  0.117755  0.543283  -0.158906
    H   H81   0.814204  0.092522  0.639763  0.092891
    H   H82   0.880289  0.179070  0.621377  0.136075
    H   H83   0.901055  0.195709  0.559257  0.105150
    H   H84   0.857159  0.125099  0.516175  0.081103
    C   C175  0.069165  0.189626  0.553300  0.131113
    C   C176  0.060513  0.202187  0.588237  -0.001658
    Cl  Cl6   0.999839  0.249632  0.602735  -0.093317
    C   C177  0.099629  0.176357  0.612531  -0.081247
    C   C178  0.148145  0.139228  0.602242  -0.176567
    C   C179  0.157358  0.127453  0.567557  -0.030575
    C   C180  0.117755  0.152275  0.543283  -0.158906
    H   H85   0.092522  0.185796  0.639763  0.092891
    H   H86   0.179070  0.119711  0.621377  0.136075
    H   H87   0.195709  0.098945  0.559257  0.105151
    H   H88   0.125099  0.142841  0.516175  0.081103
    C   C181  0.189626  0.930835  0.553300  0.131111
    C   C182  0.202187  0.939487  0.588237  -0.001656
    Cl  Cl7   0.249632  0.000161  0.602735  -0.093317
    C   C183  0.176357  0.900371  0.612531  -0.081249
    C   C184  0.139228  0.851855  0.602242  -0.176565
    C   C185  0.127453  0.842642  0.567557  -0.030574
    C   C186  0.152275  0.882245  0.543283  -0.158906
    H   H89   0.185796  0.907478  0.639763  0.092891
    H   H90   0.119711  0.820930  0.621377  0.136075
    H   H91   0.098945  0.804291  0.559257  0.105151
    H   H92   0.142841  0.874901  0.516175  0.081103
    C   C187  0.930835  0.810374  0.553300  0.131115
    C   C188  0.939487  0.797813  0.588237  -0.001657
    Cl  Cl8   0.000161  0.750368  0.602735  -0.093317
    C   C189  0.900371  0.823643  0.612531  -0.081249
    C   C190  0.851855  0.860772  0.602242  -0.176566
    C   C191  0.842642  0.872547  0.567557  -0.030573
    C   C192  0.882245  0.847725  0.543283  -0.158908
    H   H93   0.907478  0.814204  0.639763  0.092891
    H   H94   0.820930  0.880289  0.621377  0.136075
    H   H95   0.804291  0.901055  0.559257  0.105150
    H   H96   0.874901  0.857159  0.516175  0.081103
    C   C193  0.312851  0.427553  0.950205  0.214391
    C   C194  0.308401  0.363474  0.950487  0.060438
    Cl  Cl9   0.265677  0.324510  0.982477  -0.084528
    C   C195  0.336850  0.329163  0.924869  -0.196174
    C   C196  0.367862  0.358374  0.898279  -0.042110
    C   C197  0.369508  0.422100  0.896907  -0.132824
    C   C198  0.341193  0.456492  0.922480  -0.232007
    H   H97   0.334163  0.279157  0.925433  0.119794
    H   H98   0.389935  0.331315  0.878187  0.097775
    H   H99   0.392573  0.445157  0.875636  0.112338
    H   H100  0.341090  0.506412  0.920732  0.143833
    C   C199  0.572447  0.312851  0.950205  0.214388
    C   C200  0.636526  0.308401  0.950487  0.060438
    Cl  Cl10  0.675490  0.265677  0.982477  -0.084528
    C   C201  0.670837  0.336850  0.924869  -0.196174
    C   C202  0.641626  0.367862  0.898279  -0.042112
    C   C203  0.577900  0.369508  0.896907  -0.132824
    C   C204  0.543508  0.341193  0.922480  -0.232005
    H   H101  0.720843  0.334163  0.925433  0.119794
    H   H102  0.668685  0.389935  0.878187  0.097776
    H   H103  0.554843  0.392573  0.875636  0.112338
    H   H104  0.493588  0.341090  0.920732  0.143833
    C   C205  0.687149  0.572447  0.950205  0.214386
    C   C206  0.691599  0.636526  0.950487  0.060440
    Cl  Cl11  0.734323  0.675490  0.982477  -0.084529
    C   C207  0.663150  0.670837  0.924869  -0.196176
    C   C208  0.632138  0.641626  0.898279  -0.042108
    C   C209  0.630492  0.577900  0.896907  -0.132824
    C   C210  0.658807  0.543508  0.922480  -0.232006
    H   H105  0.665837  0.720843  0.925433  0.119794
    H   H106  0.610065  0.668685  0.878187  0.097774
    H   H107  0.607427  0.554843  0.875636  0.112338
    H   H108  0.658910  0.493588  0.920732  0.143833
    C   C211  0.427553  0.687149  0.950205  0.214384
    C   C212  0.363474  0.691599  0.950487  0.060438
    Cl  Cl12  0.324510  0.734323  0.982477  -0.084528
    C   C213  0.329163  0.663150  0.924869  -0.196175
    C   C214  0.358374  0.632138  0.898279  -0.042109
    C   C215  0.422100  0.630492  0.896907  -0.132824
    C   C216  0.456492  0.658807  0.922480  -0.232004
    H   H109  0.279157  0.665837  0.925433  0.119795
    H   H110  0.331315  0.610065  0.878187  0.097775
    H   H111  0.445157  0.607427  0.875636  0.112338
    H   H112  0.506412  0.658910  0.920732  0.143832
    C   C217  0.310374  0.569165  0.053300  0.131109
    C   C218  0.297813  0.560513  0.088237  -0.001653
    Cl  Cl13  0.250368  0.499839  0.102735  -0.093319
    C   C219  0.323643  0.599629  0.112531  -0.081251
    C   C220  0.360772  0.648145  0.102242  -0.176560
    C   C221  0.372547  0.657358  0.067557  -0.030595
    C   C222  0.347725  0.617755  0.043283  -0.158902
    H   H113  0.314204  0.592522  0.139763  0.092890
    H   H114  0.380289  0.679070  0.121377  0.136075
    H   H115  0.401055  0.695709  0.059257  0.105159
    H   H116  0.357159  0.625099  0.016175  0.081116
    C   C223  0.569165  0.689626  0.053300  0.131105
    C   C224  0.560513  0.702187  0.088237  -0.001652
    Cl  Cl14  0.499839  0.749632  0.102735  -0.093319
    C   C225  0.599629  0.676357  0.112531  -0.081251
    C   C226  0.648145  0.639228  0.102242  -0.176558
    C   C227  0.657358  0.627453  0.067557  -0.030597
    C   C228  0.617755  0.652275  0.043283  -0.158900
    H   H117  0.592522  0.685796  0.139763  0.092890
    H   H118  0.679070  0.619711  0.121377  0.136073
    H   H119  0.695709  0.598945  0.059257  0.105161
    H   H120  0.625099  0.642841  0.016175  0.081116
    C   C229  0.689626  0.430835  0.053300  0.131106
    C   C230  0.702187  0.439487  0.088237  -0.001653
    Cl  Cl15  0.749632  0.500161  0.102735  -0.093318
    C   C231  0.676357  0.400371  0.112531  -0.081252
    C   C232  0.639228  0.351855  0.102242  -0.176558
    C   C233  0.627453  0.342642  0.067557  -0.030595
    C   C234  0.652275  0.382245  0.043283  -0.158900
    H   H121  0.685796  0.407478  0.139763  0.092890
    H   H122  0.619711  0.320930  0.121377  0.136074
    H   H123  0.598945  0.304291  0.059257  0.105159
    H   H124  0.642841  0.374901  0.016175  0.081117
    C   C235  0.430835  0.310374  0.053300  0.131109
    C   C236  0.439487  0.297813  0.088237  -0.001652
    Cl  Cl16  0.500161  0.250368  0.102735  -0.093320
    C   C237  0.400371  0.323643  0.112531  -0.081252
    C   C238  0.351855  0.360772  0.102242  -0.176559
    C   C239  0.342642  0.372547  0.067557  -0.030596
    C   C240  0.382245  0.347725  0.043283  -0.158903
    H   H125  0.407478  0.314204  0.139763  0.092890
    H   H126  0.320930  0.380289  0.121377  0.136074
    H   H127  0.304291  0.401055  0.059257  0.105161
    H   H128  0.374901  0.357159  0.016175  0.081116
