# Generated by REPEAT Assigner based on pymatgen
data_DB0-m2_o1_o3_f0_nbo.sym.97
_audit_creation_date              2022-05-24
_audit_creation_method            REPEAT_Assigner
_cell_length_a                    21.455669
_cell_length_b                    21.455669
_cell_length_c                    38.806429
_cell_angle_alpha                 90.000000
_cell_angle_beta                  90.000000
_cell_angle_gamma                 90.000000
_cell_volume                      17864.373669
_symmetry_space_group_name_H-M    P1
_symmetry_Int_Tables_number       1
loop_
    _symmetry_equiv_pos_site_id
    _symmetry_equiv_pos_as_xyz
    1  x,y,z
loop_
    _atom_site_type_symbol
    _atom_site_label
    _atom_site_fract_x
    _atom_site_fract_y
    _atom_site_fract_z
    _atom_type_partial_charge
    O   O1    0.588730  0.051273  0.490173  -0.569947
    O   O2    0.948727  0.588730  0.490173  -0.569875
    O   O3    0.411270  0.948727  0.490173  -0.569879
    O   O4    0.051273  0.411270  0.490173  -0.569954
    O   O5    0.588730  0.948727  0.509827  -0.569873
    O   O6    0.948727  0.411270  0.509827  -0.569882
    O   O7    0.411270  0.051273  0.509827  -0.569966
    O   O8    0.051273  0.588730  0.509827  -0.569942
    O   O9    0.088730  0.551273  0.990173  -0.569966
    O   O10   0.448727  0.088730  0.990173  -0.569968
    O   O11   0.911270  0.448727  0.990173  -0.569955
    O   O12   0.551273  0.911270  0.990173  -0.569949
    O   O13   0.088730  0.448727  0.009827  -0.569957
    O   O14   0.448727  0.911270  0.009827  -0.569963
    O   O15   0.911270  0.551273  0.009827  -0.569963
    O   O16   0.551273  0.088730  0.009827  -0.569954
    C   C1    0.617829  0.000000  0.500000  0.613850
    C   C2    0.000000  0.617829  0.500000  0.613844
    C   C3    0.382171  0.000000  0.500000  0.613878
    C   C4    0.000000  0.382171  0.500000  0.613869
    C   C5    0.117829  0.500000  0.000000  0.613830
    C   C6    0.500000  0.117829  0.000000  0.613829
    C   C7    0.882171  0.500000  0.000000  0.613865
    C   C8    0.500000  0.882171  0.000000  0.613866
    O   O17   0.518099  0.050892  0.549120  -0.520818
    O   O18   0.949108  0.518099  0.549120  -0.520895
    O   O19   0.481901  0.949108  0.549120  -0.520905
    O   O20   0.050892  0.481901  0.549120  -0.520802
    O   O21   0.518099  0.949108  0.450880  -0.520901
    O   O22   0.949108  0.481901  0.450880  -0.520893
    O   O23   0.481901  0.050892  0.450880  -0.520811
    O   O24   0.050892  0.518099  0.450880  -0.520799
    O   O25   0.018099  0.550892  0.049120  -0.520748
    O   O26   0.449108  0.018099  0.049120  -0.520749
    O   O27   0.981901  0.449108  0.049120  -0.520729
    O   O28   0.550892  0.981901  0.049120  -0.520724
    O   O29   0.018099  0.449108  0.950880  -0.520738
    O   O30   0.449108  0.981901  0.950880  -0.520741
    O   O31   0.981901  0.550892  0.950880  -0.520740
    O   O32   0.550892  0.018099  0.950880  -0.520729
    C   C9    0.500000  0.000000  0.565624  0.531914
    C   C10   0.000000  0.500000  0.565624  0.531902
    C   C11   0.500000  0.000000  0.434376  0.531901
    C   C12   0.000000  0.500000  0.434376  0.531891
    C   C13   0.000000  0.500000  0.065624  0.531758
    C   C14   0.500000  0.000000  0.065624  0.531764
    C   C15   0.000000  0.500000  0.934376  0.531763
    C   C16   0.500000  0.000000  0.934376  0.531741
    Cu  Cu1   0.500000  0.060691  0.500000  0.948044
    Cu  Cu2   0.939309  0.500000  0.500000  0.948104
    Cu  Cu3   0.500000  0.939309  0.500000  0.948107
    Cu  Cu4   0.060691  0.500000  0.500000  0.948080
    Cu  Cu5   0.000000  0.560691  0.000000  0.948005
    Cu  Cu6   0.439309  0.000000  0.000000  0.947941
    Cu  Cu7   0.000000  0.439309  0.000000  0.948025
    Cu  Cu8   0.560691  0.000000  0.000000  0.948070
    C   C17   0.555923  0.999790  0.877484  -0.123555
    C   C18   0.000210  0.555923  0.877484  -0.123507
    C   C19   0.444077  0.000210  0.877484  -0.123567
    C   C20   0.999790  0.444077  0.877484  -0.123512
    C   C21   0.555923  0.000210  0.122516  -0.123515
    C   C22   0.000210  0.444077  0.122516  -0.123566
    C   C23   0.444077  0.999790  0.122516  -0.123525
    C   C24   0.999790  0.555923  0.122516  -0.123563
    C   C25   0.055923  0.499791  0.377484  -0.123622
    C   C26   0.500210  0.055923  0.377484  -0.123613
    C   C27   0.944077  0.500210  0.377484  -0.123480
    C   C28   0.499790  0.944077  0.377484  -0.123496
    C   C29   0.055923  0.500210  0.622516  -0.123588
    C   C30   0.500210  0.944077  0.622516  -0.123469
    C   C31   0.944077  0.499790  0.622516  -0.123445
    C   C32   0.499790  0.055923  0.622516  -0.123598
    C   C33   0.554952  0.005433  0.842077  -0.045358
    C   C34   0.994567  0.554952  0.842077  -0.045383
    C   C35   0.445049  0.994568  0.842077  -0.045326
    C   C36   0.005433  0.445048  0.842077  -0.045368
    C   C37   0.554951  0.994567  0.157923  -0.045347
    C   C38   0.994568  0.445049  0.157923  -0.045296
    C   C39   0.445048  0.005433  0.157923  -0.045355
    C   C40   0.005432  0.554952  0.157923  -0.045328
    C   C41   0.054952  0.505433  0.342077  -0.045263
    C   C42   0.494567  0.054952  0.342077  -0.045284
    C   C43   0.945048  0.494567  0.342077  -0.045341
    C   C44   0.505432  0.945048  0.342077  -0.045344
    C   C45   0.054952  0.494567  0.657923  -0.045305
    C   C46   0.494567  0.945049  0.657923  -0.045355
    C   C47   0.945048  0.505433  0.657923  -0.045384
    C   C48   0.505433  0.054952  0.657923  -0.045297
    H   H1    0.598299  0.009046  0.828104  0.074243
    H   H2    0.990954  0.598299  0.828104  0.074249
    H   H3    0.401702  0.990954  0.828104  0.074229
    H   H4    0.009046  0.401701  0.828104  0.074240
    H   H5    0.598298  0.990953  0.171896  0.074238
    H   H6    0.990954  0.401702  0.171896  0.074222
    H   H7    0.401701  0.009046  0.171896  0.074241
    H   H8    0.009046  0.598299  0.171896  0.074235
    H   H9    0.098298  0.509047  0.328104  0.074216
    H   H10   0.490953  0.098299  0.328104  0.074223
    H   H11   0.901701  0.490953  0.328104  0.074224
    H   H12   0.509046  0.901701  0.328104  0.074225
    H   H13   0.098299  0.490953  0.671896  0.074226
    H   H14   0.490953  0.901702  0.671896  0.074220
    H   H15   0.901701  0.509046  0.671896  0.074235
    H   H16   0.509047  0.098299  0.671896  0.074224
    C   C49   0.500000  0.000000  0.824010  0.051901
    C   C50   0.000000  0.500000  0.824010  0.051909
    C   C51   0.500000  0.000000  0.175990  0.051888
    C   C52   0.000000  0.500000  0.175990  0.051844
    C   C53   0.000000  0.500000  0.324010  0.051819
    C   C54   0.500000  0.000000  0.324010  0.051837
    C   C55   0.000000  0.500000  0.675990  0.051857
    C   C56   0.500000  0.000000  0.675990  0.051842
    C   C57   0.500000  0.000000  0.896063  -0.007369
    C   C58   0.000000  0.500000  0.896063  -0.007420
    C   C59   0.500000  0.000000  0.103937  -0.007423
    C   C60   0.000000  0.500000  0.103937  -0.007377
    C   C61   0.000000  0.500000  0.396063  -0.007395
    C   C62   0.500000  0.000000  0.396063  -0.007393
    C   C63   0.000000  0.500000  0.603937  -0.007429
    C   C64   0.500000  0.000000  0.603937  -0.007424
    C   C65   0.461883  0.040929  0.767808  -0.139582
    C   C66   0.959071  0.461882  0.767808  -0.139576
    C   C67   0.538118  0.959071  0.767808  -0.139572
    C   C68   0.040929  0.538117  0.767808  -0.139595
    C   C69   0.461882  0.959071  0.232192  -0.139576
    C   C70   0.959071  0.538117  0.232192  -0.139574
    C   C71   0.538117  0.040929  0.232192  -0.139587
    C   C72   0.040929  0.461883  0.232192  -0.139590
    C   C73   0.961882  0.540929  0.267808  -0.139601
    C   C74   0.459071  0.961882  0.267808  -0.139569
    C   C75   0.038118  0.459072  0.267808  -0.139569
    C   C76   0.540929  0.038117  0.267808  -0.139591
    C   C77   0.961882  0.459071  0.732192  -0.139570
    C   C78   0.459072  0.038118  0.732192  -0.139568
    C   C79   0.038118  0.540929  0.732192  -0.139577
    C   C80   0.540929  0.961882  0.732192  -0.139591
    C   C81   0.500000  0.000000  0.714058  0.107572
    C   C82   0.000000  0.500000  0.714058  0.107559
    C   C83   0.500000  0.000000  0.285942  0.107569
    C   C84   0.000000  0.500000  0.285942  0.107580
    C   C85   0.000000  0.500000  0.214058  0.107573
    C   C86   0.500000  0.000000  0.214058  0.107555
    C   C87   0.000000  0.500000  0.785942  0.107551
    C   C88   0.500000  0.000000  0.785943  0.107541
    C   C89   0.718006  0.948269  0.488640  -0.106175
    C   C90   0.051731  0.718006  0.488640  -0.106179
    C   C91   0.281994  0.051731  0.488640  -0.106181
    C   C92   0.948269  0.281994  0.488640  -0.106179
    C   C93   0.718006  0.051731  0.511360  -0.106180
    C   C94   0.051731  0.281994  0.511360  -0.106184
    C   C95   0.281994  0.948269  0.511360  -0.106178
    C   C96   0.948269  0.718006  0.511360  -0.106178
    C   C97   0.218006  0.448269  0.988640  -0.106187
    C   C98   0.551731  0.218006  0.988640  -0.106189
    C   C99   0.781994  0.551731  0.988640  -0.106180
    C   C100  0.448269  0.781994  0.988640  -0.106179
    C   C101  0.218006  0.551731  0.011360  -0.106188
    C   C102  0.551731  0.781994  0.011360  -0.106178
    C   C103  0.781994  0.448269  0.011360  -0.106180
    C   C104  0.448269  0.218006  0.011360  -0.106186
    H   H17   0.693066  0.907754  0.479479  0.111073
    H   H18   0.092246  0.693066  0.479479  0.111065
    H   H19   0.306933  0.092246  0.479479  0.111071
    H   H20   0.907754  0.306934  0.479479  0.111078
    H   H21   0.693066  0.092246  0.520521  0.111065
    H   H22   0.092246  0.306933  0.520521  0.111072
    H   H23   0.306934  0.907754  0.520521  0.111077
    H   H24   0.907754  0.693066  0.520521  0.111075
    H   H25   0.193066  0.407754  0.979479  0.111071
    H   H26   0.592246  0.193066  0.979479  0.111074
    H   H27   0.806934  0.592246  0.979479  0.111072
    H   H28   0.407754  0.806933  0.979479  0.111071
    H   H29   0.193066  0.592246  0.020521  0.111074
    H   H30   0.592246  0.806934  0.020521  0.111072
    H   H31   0.806933  0.407754  0.020521  0.111073
    H   H32   0.407754  0.193066  0.020521  0.111072
    C   C105  0.782229  0.948954  0.487739  -0.079559
    C   C106  0.051046  0.782229  0.487739  -0.079558
    C   C107  0.217771  0.051046  0.487739  -0.079567
    C   C108  0.948954  0.217771  0.487739  -0.079567
    C   C109  0.782229  0.051046  0.512261  -0.079555
    C   C110  0.051046  0.217771  0.512261  -0.079563
    C   C111  0.217771  0.948954  0.512261  -0.079566
    C   C112  0.948954  0.782229  0.512261  -0.079558
    C   C113  0.282229  0.448954  0.987739  -0.079577
    C   C114  0.551046  0.282229  0.987739  -0.079581
    C   C115  0.717771  0.551046  0.987739  -0.079579
    C   C116  0.448954  0.717771  0.987739  -0.079574
    C   C117  0.282229  0.551046  0.012261  -0.079577
    C   C118  0.551046  0.717771  0.012261  -0.079574
    C   C119  0.717771  0.448954  0.012261  -0.079571
    C   C120  0.448954  0.282229  0.012261  -0.079572
    H   H33   0.807255  0.908674  0.478329  0.109505
    H   H34   0.091326  0.807255  0.478329  0.109508
    H   H35   0.192745  0.091326  0.478329  0.109508
    H   H36   0.908674  0.192745  0.478329  0.109505
    H   H37   0.807255  0.091326  0.521671  0.109507
    H   H38   0.091326  0.192745  0.521671  0.109506
    H   H39   0.192745  0.908674  0.521671  0.109504
    H   H40   0.908674  0.807255  0.521671  0.109503
    H   H41   0.307255  0.408674  0.978329  0.109512
    H   H42   0.591326  0.307255  0.978329  0.109515
    H   H43   0.692745  0.591326  0.978329  0.109512
    H   H44   0.408674  0.692745  0.978329  0.109510
    H   H45   0.307255  0.591326  0.021671  0.109512
    H   H46   0.591326  0.692745  0.021671  0.109509
    H   H47   0.692745  0.408674  0.021671  0.109506
    H   H48   0.408674  0.307255  0.021671  0.109509
    C   C121  0.814391  0.000000  0.500000  -0.087482
    C   C122  0.000000  0.814391  0.500000  -0.087480
    C   C123  0.185609  0.000000  0.500000  -0.087439
    C   C124  0.000000  0.185609  0.500000  -0.087439
    C   C125  0.314391  0.500000  0.000000  -0.087448
    C   C126  0.500000  0.314391  0.000000  -0.087447
    C   C127  0.685609  0.500000  0.000000  -0.087443
    C   C128  0.500000  0.685609  0.000000  -0.087444
    C   C129  0.685809  0.000000  0.500000  0.012507
    C   C130  0.000000  0.685809  0.500000  0.012513
    C   C131  0.314191  0.000000  0.500000  0.012500
    C   C132  0.000000  0.314191  0.500000  0.012504
    C   C133  0.185809  0.500000  0.000000  0.012573
    C   C134  0.500000  0.185809  0.000000  0.012572
    C   C135  0.814191  0.500000  0.000000  0.012544
    C   C136  0.500000  0.814191  0.000000  0.012544
    O   O33   0.980380  0.088571  0.471962  -0.643717
    O   O34   0.911429  0.980380  0.471962  -0.643708
    O   O35   0.019620  0.911429  0.471962  -0.643714
    O   O36   0.088571  0.019620  0.471962  -0.643721
    O   O37   0.980380  0.911429  0.528038  -0.643687
    O   O38   0.911429  0.019620  0.528038  -0.643691
    O   O39   0.019620  0.088571  0.528038  -0.643699
    O   O40   0.088571  0.980380  0.528038  -0.643695
    O   O41   0.480380  0.588571  0.971962  -0.643705
    O   O42   0.411429  0.480380  0.971962  -0.643712
    O   O43   0.519620  0.411429  0.971962  -0.643712
    O   O44   0.588571  0.519620  0.971962  -0.643704
    O   O45   0.480380  0.411429  0.028038  -0.643730
    O   O46   0.411429  0.519620  0.028038  -0.643731
    O   O47   0.519620  0.588571  0.028038  -0.643720
    O   O48   0.588571  0.480380  0.028038  -0.643723
    C   C137  0.000000  0.117665  0.500000  0.806962
    C   C138  0.882335  0.000000  0.500000  0.807007
    C   C139  0.000000  0.882335  0.500000  0.807010
    C   C140  0.117665  0.000000  0.500000  0.806963
    C   C141  0.500000  0.617665  0.000000  0.806964
    C   C142  0.382335  0.500000  0.000000  0.806987
    C   C143  0.500000  0.382335  0.000000  0.806986
    C   C144  0.617665  0.500000  0.000000  0.806963
    Cu  Cu9   0.000000  0.000000  0.466603  0.990563
    Cu  Cu10  0.000000  0.000000  0.533397  0.990661
    Cu  Cu11  0.500000  0.500000  0.966603  0.990708
    Cu  Cu12  0.500000  0.500000  0.033397  0.990571
    C   C145  0.616860  0.988607  0.893481  0.274173
    C   C146  0.670529  0.019957  0.884954  -0.199883
    C   C147  0.716237  0.992842  0.903899  -0.202541
    C   C148  0.687498  0.946419  0.922374  -0.141989
    O   O49   0.626979  0.943187  0.915941  -0.057022
    H   H49   0.675617  0.058204  0.867040  0.133156
    H   H50   0.765127  0.004981  0.904215  0.154849
    H   H51   0.711179  0.915453  0.940016  0.147200
    C   C149  0.011392  0.616860  0.893481  0.274156
    C   C150  0.980042  0.670529  0.884954  -0.199867
    C   C151  0.007158  0.716236  0.903899  -0.202526
    C   C152  0.053581  0.687499  0.922374  -0.142002
    O   O50   0.056813  0.626979  0.915941  -0.057035
    H   H52   0.941795  0.675617  0.867040  0.133150
    H   H53   0.995018  0.765127  0.904215  0.154836
    H   H54   0.084546  0.711179  0.940016  0.147211
    C   C153  0.383141  0.011393  0.893481  0.274171
    C   C154  0.329471  0.980043  0.884954  -0.199869
    C   C155  0.283764  0.007158  0.903899  -0.202523
    C   C156  0.312502  0.053581  0.922374  -0.141997
    O   O51   0.373021  0.056813  0.915941  -0.057027
    H   H55   0.324383  0.941796  0.867040  0.133150
    H   H56   0.234873  0.995019  0.904215  0.154837
    H   H57   0.288821  0.084547  0.940016  0.147205
    C   C157  0.988608  0.383140  0.893481  0.274145
    C   C158  0.019958  0.329471  0.884954  -0.199881
    C   C159  0.992842  0.283763  0.903899  -0.202529
    C   C160  0.946419  0.312501  0.922374  -0.141993
    O   O52   0.943187  0.373021  0.915941  -0.057026
    H   H58   0.058205  0.324383  0.867040  0.133157
    H   H59   0.004982  0.234873  0.904215  0.154842
    H   H60   0.915454  0.288821  0.940016  0.147206
    C   C161  0.616860  0.011392  0.106519  0.274132
    C   C162  0.670529  0.980042  0.115046  -0.199857
    C   C163  0.716236  0.007157  0.096102  -0.202492
    C   C164  0.687499  0.053580  0.077627  -0.142038
    O   O53   0.626979  0.056813  0.084060  -0.056992
    H   H61   0.675617  0.941795  0.132960  0.133141
    H   H62   0.765127  0.995018  0.095785  0.154832
    H   H63   0.711180  0.084546  0.059985  0.147207
    C   C165  0.011393  0.383141  0.106519  0.274158
    C   C166  0.980043  0.329471  0.115046  -0.199861
    C   C167  0.007159  0.283764  0.096102  -0.202523
    C   C168  0.053582  0.312502  0.077626  -0.142016
    O   O54   0.056813  0.373021  0.084059  -0.057017
    H   H64   0.941796  0.324383  0.132960  0.133148
    H   H65   0.995020  0.234873  0.095785  0.154834
    H   H66   0.084547  0.288821  0.059984  0.147215
    C   C169  0.383140  0.988608  0.106519  0.274168
    C   C170  0.329471  0.019958  0.115046  -0.199894
    C   C171  0.283763  0.992843  0.096101  -0.202511
    C   C172  0.312501  0.946419  0.077626  -0.142021
    O   O55   0.373021  0.943187  0.084060  -0.057018
    H   H67   0.324383  0.058205  0.132960  0.133154
    H   H68   0.234873  0.004982  0.095785  0.154841
    H   H69   0.288820  0.915454  0.059984  0.147213
    C   C173  0.988607  0.616860  0.106519  0.274175
    C   C174  0.019957  0.670529  0.115046  -0.199890
    C   C175  0.992841  0.716237  0.096101  -0.202544
    C   C176  0.946418  0.687498  0.077626  -0.141991
    O   O56   0.943187  0.626979  0.084059  -0.057018
    H   H70   0.058204  0.675618  0.132960  0.133159
    H   H71   0.004980  0.765127  0.095785  0.154847
    H   H72   0.915453  0.711179  0.059984  0.147203
    C   C177  0.116860  0.488609  0.393481  0.274177
    C   C178  0.170529  0.519959  0.384954  -0.199879
    C   C179  0.216237  0.492844  0.403899  -0.202518
    C   C180  0.187499  0.446421  0.422373  -0.142019
    O   O57   0.126979  0.443188  0.415940  -0.056999
    H   H73   0.175617  0.558206  0.367040  0.133151
    H   H74   0.265127  0.504984  0.404215  0.154845
    H   H75   0.211180  0.415455  0.440015  0.147201
    C   C181  0.511392  0.116860  0.393481  0.274176
    C   C182  0.480042  0.170529  0.384954  -0.199865
    C   C183  0.507157  0.216236  0.403899  -0.202513
    C   C184  0.553580  0.187499  0.422374  -0.142037
    O   O58   0.556813  0.126979  0.415940  -0.057004
    H   H76   0.441795  0.175617  0.367040  0.133148
    H   H77   0.495018  0.265127  0.404215  0.154837
    H   H78   0.584546  0.211180  0.440016  0.147215
    C   C185  0.883140  0.511392  0.393481  0.274148
    C   C186  0.829471  0.480041  0.384954  -0.199810
    C   C187  0.783763  0.507156  0.403899  -0.202540
    C   C188  0.812501  0.553580  0.422373  -0.141984
    O   O59   0.873020  0.556812  0.415940  -0.057055
    H   H79   0.824384  0.441794  0.367040  0.133125
    H   H80   0.734873  0.495016  0.404215  0.154839
    H   H81   0.788820  0.584545  0.440015  0.147206
    C   C189  0.488608  0.883140  0.393481  0.274185
    C   C190  0.519958  0.829471  0.384954  -0.199819
    C   C191  0.492843  0.783763  0.403899  -0.202549
    C   C192  0.446419  0.812501  0.422374  -0.141974
    O   O60   0.443187  0.873021  0.415941  -0.057096
    H   H82   0.558205  0.824383  0.367040  0.133133
    H   H83   0.504982  0.734873  0.404215  0.154839
    H   H84   0.415454  0.788820  0.440016  0.147213
    C   C193  0.116860  0.511392  0.606519  0.274181
    C   C194  0.170529  0.480042  0.615046  -0.199874
    C   C195  0.216236  0.507157  0.596101  -0.202507
    C   C196  0.187499  0.553580  0.577626  -0.142045
    O   O61   0.126979  0.556812  0.584060  -0.056999
    H   H85   0.175617  0.441795  0.632960  0.133147
    H   H86   0.265127  0.495018  0.595785  0.154835
    H   H87   0.211180  0.584546  0.559984  0.147218
    C   C197  0.511392  0.883140  0.606519  0.274157
    C   C198  0.480041  0.829471  0.615046  -0.199824
    C   C199  0.507156  0.783763  0.596102  -0.202509
    C   C200  0.553580  0.812501  0.577627  -0.142021
    O   O62   0.556812  0.873021  0.584060  -0.057048
    H   H88   0.441794  0.824383  0.632960  0.133130
    H   H89   0.495017  0.734873  0.595785  0.154834
    H   H90   0.584545  0.788820  0.559985  0.147216
    C   C201  0.883140  0.488608  0.606519  0.274147
    C   C202  0.829471  0.519958  0.615046  -0.199811
    C   C203  0.783763  0.492843  0.596102  -0.202524
    C   C204  0.812501  0.446420  0.577626  -0.142004
    O   O63   0.873021  0.443187  0.584060  -0.057061
    H   H91   0.824383  0.558205  0.632960  0.133126
    H   H92   0.734873  0.504982  0.595785  0.154835
    H   H93   0.788820  0.415454  0.559984  0.147216
    C   C205  0.488608  0.116860  0.606519  0.274184
    C   C206  0.519959  0.170529  0.615046  -0.199893
    C   C207  0.492844  0.216237  0.596101  -0.202513
    C   C208  0.446420  0.187499  0.577627  -0.142032
    O   O64   0.443188  0.126979  0.584060  -0.056990
    H   H94   0.558206  0.175617  0.632960  0.133156
    H   H95   0.504983  0.265127  0.595785  0.154845
    H   H96   0.415455  0.211180  0.559985  0.147207
    C   C209  0.423876  0.087372  0.785956  0.275440
    C   C210  0.447448  0.131921  0.807812  -0.128958
    C   C211  0.397150  0.163867  0.819489  -0.266367
    C   C212  0.346442  0.136774  0.803907  0.020937
    O   O65   0.362355  0.090068  0.783406  -0.172793
    H   H97   0.495755  0.139724  0.814446  0.100582
    H   H98   0.397002  0.202499  0.837363  0.159975
    H   H99   0.298768  0.151441  0.807793  0.100512
    C   C213  0.912628  0.423875  0.785956  0.275433
    C   C214  0.868080  0.447448  0.807812  -0.128943
    C   C215  0.836134  0.397149  0.819489  -0.266382
    C   C216  0.863227  0.346441  0.803907  0.020950
    O   O66   0.909933  0.362354  0.783406  -0.172787
    H   H100  0.860276  0.495754  0.814446  0.100585
    H   H101  0.797501  0.397001  0.837363  0.159972
    H   H102  0.848559  0.298767  0.807793  0.100509
    C   C217  0.576125  0.912628  0.785956  0.275432
    C   C218  0.552552  0.868080  0.807812  -0.128939
    C   C219  0.602851  0.836133  0.819489  -0.266384
    C   C220  0.653559  0.863227  0.803907  0.020935
    O   O67   0.637645  0.909933  0.783406  -0.172785
    H   H103  0.504246  0.860276  0.814446  0.100578
    H   H104  0.602998  0.797501  0.837363  0.159980
    H   H105  0.701233  0.848559  0.807793  0.100515
    C   C221  0.087372  0.576125  0.785956  0.275459
    C   C222  0.131920  0.552552  0.807812  -0.128954
    C   C223  0.163866  0.602851  0.819489  -0.266376
    C   C224  0.136773  0.653559  0.803907  0.020927
    O   O68   0.090067  0.637645  0.783406  -0.172793
    H   H106  0.139724  0.504246  0.814446  0.100583
    H   H107  0.202499  0.602998  0.837363  0.159975
    H   H108  0.151441  0.701233  0.807793  0.100518
    C   C225  0.423875  0.912628  0.214044  0.275417
    C   C226  0.447447  0.868080  0.192188  -0.128921
    C   C227  0.397149  0.836134  0.180511  -0.266407
    C   C228  0.346441  0.863227  0.196094  0.020972
    O   O69   0.362354  0.909933  0.216594  -0.172783
    H   H109  0.495754  0.860276  0.185554  0.100577
    H   H110  0.397001  0.797501  0.162637  0.159979
    H   H111  0.298767  0.848559  0.192207  0.100500
    C   C229  0.912628  0.576125  0.214044  0.275421
    C   C230  0.868079  0.552552  0.192188  -0.128939
    C   C231  0.836133  0.602850  0.180511  -0.266381
    C   C232  0.863226  0.653558  0.196094  0.020941
    O   O70   0.909932  0.637645  0.216594  -0.172776
    H   H112  0.860276  0.504245  0.185554  0.100578
    H   H113  0.797501  0.602998  0.162637  0.159977
    H   H114  0.848558  0.701232  0.192207  0.100508
    C   C233  0.576125  0.087371  0.214044  0.275449
    C   C234  0.552552  0.131920  0.192188  -0.128945
    C   C235  0.602851  0.163866  0.180511  -0.266404
    C   C236  0.653559  0.136773  0.196094  0.020953
    O   O71   0.637645  0.090067  0.216594  -0.172790
    H   H115  0.504246  0.139723  0.185554  0.100582
    H   H116  0.602998  0.202499  0.162637  0.159981
    H   H117  0.701233  0.151440  0.192207  0.100511
    C   C237  0.087372  0.423876  0.214044  0.275438
    C   C238  0.131920  0.447449  0.192188  -0.128954
    C   C239  0.163867  0.397150  0.180511  -0.266390
    C   C240  0.136774  0.346442  0.196093  0.020953
    O   O72   0.090068  0.362355  0.216594  -0.172794
    H   H118  0.139724  0.495755  0.185554  0.100588
    H   H119  0.202499  0.397003  0.162637  0.159981
    H   H120  0.151442  0.298768  0.192207  0.100510
    C   C241  0.923874  0.587371  0.285956  0.275485
    C   C242  0.947447  0.631920  0.307812  -0.129008
    C   C243  0.897148  0.663866  0.319489  -0.266342
    C   C244  0.846440  0.636772  0.303907  0.020902
    O   O73   0.862354  0.590066  0.283406  -0.172785
    H   H121  0.995753  0.639724  0.314446  0.100598
    H   H122  0.897000  0.702498  0.337363  0.159977
    H   H123  0.798766  0.651439  0.307793  0.100520
    C   C245  0.412628  0.923875  0.285956  0.275431
    C   C246  0.368080  0.947447  0.307812  -0.128973
    C   C247  0.336134  0.897149  0.319489  -0.266337
    C   C248  0.363227  0.846441  0.303907  0.020910
    O   O74   0.409933  0.862354  0.283406  -0.172783
    H   H124  0.360276  0.995754  0.314446  0.100587
    H   H125  0.297501  0.897001  0.337363  0.159970
    H   H126  0.348559  0.798767  0.307793  0.100516
    C   C249  0.076125  0.412629  0.285956  0.275424
    C   C250  0.052553  0.368080  0.307812  -0.128938
    C   C251  0.102852  0.336135  0.319489  -0.266392
    C   C252  0.153560  0.363229  0.303907  0.020948
    O   O75   0.137646  0.409934  0.283406  -0.172789
    H   H127  0.004247  0.360277  0.314446  0.100583
    H   H128  0.103000  0.297502  0.337363  0.159977
    H   H129  0.201234  0.348561  0.307793  0.100512
    C   C253  0.587371  0.076125  0.285956  0.275466
    C   C254  0.631920  0.052552  0.307812  -0.128961
    C   C255  0.663866  0.102851  0.319489  -0.266390
    C   C256  0.636772  0.153559  0.303907  0.020937
    O   O76   0.590067  0.137645  0.283406  -0.172796
    H   H130  0.639723  0.004246  0.314446  0.100588
    H   H131  0.702499  0.102999  0.337363  0.159982
    H   H132  0.651440  0.201233  0.307793  0.100515
    C   C257  0.923875  0.412628  0.714044  0.275426
    C   C258  0.947447  0.368080  0.692188  -0.128965
    C   C259  0.897148  0.336134  0.680511  -0.266367
    C   C260  0.846441  0.363227  0.696094  0.020940
    O   O77   0.862354  0.409933  0.716595  -0.172785
    H   H133  0.995754  0.360276  0.685554  0.100589
    H   H134  0.897001  0.297501  0.662637  0.159979
    H   H135  0.798767  0.348560  0.692207  0.100506
    C   C261  0.412629  0.076125  0.714044  0.275414
    C   C262  0.368080  0.052553  0.692188  -0.128919
    C   C263  0.336135  0.102852  0.680511  -0.266412
    C   C264  0.363228  0.153560  0.696094  0.020956
    O   O78   0.409934  0.137646  0.716594  -0.172787
    H   H136  0.360276  0.004247  0.685555  0.100580
    H   H137  0.297502  0.103000  0.662637  0.159981
    H   H138  0.348561  0.201234  0.692207  0.100511
    C   C265  0.076125  0.587371  0.714044  0.275437
    C   C266  0.052553  0.631920  0.692188  -0.128921
    C   C267  0.102851  0.663866  0.680511  -0.266428
    C   C268  0.153559  0.636772  0.696094  0.020969
    O   O79   0.137646  0.590067  0.716594  -0.172793
    H   H139  0.004246  0.639724  0.685555  0.100579
    H   H140  0.102999  0.702498  0.662637  0.159991
    H   H141  0.201233  0.651440  0.692207  0.100503
    C   C269  0.587371  0.923875  0.714044  0.275462
    C   C270  0.631920  0.947447  0.692188  -0.128983
    C   C271  0.663866  0.897148  0.680511  -0.266370
    C   C272  0.636772  0.846441  0.696094  0.020935
    O   O80   0.590067  0.862354  0.716595  -0.172784
    H   H142  0.639724  0.995753  0.685554  0.100594
    H   H143  0.702499  0.897001  0.662637  0.159984
    H   H144  0.651440  0.798766  0.692207  0.100506
