# Generated by REPEAT Assigner based on pymatgen
data_DB0-m2_o1_o3_f0_nbo.sym.109
_audit_creation_date              2022-05-24
_audit_creation_method            REPEAT_Assigner
_cell_length_a                    21.499034
_cell_length_b                    21.499034
_cell_length_c                    38.401407
_cell_angle_alpha                 90.000000
_cell_angle_beta                  90.000000
_cell_angle_gamma                 90.000000
_cell_volume                      17749.455149
_symmetry_space_group_name_H-M    P1
_symmetry_Int_Tables_number       1
loop_
    _symmetry_equiv_pos_site_id
    _symmetry_equiv_pos_as_xyz
    1  x,y,z
loop_
    _atom_site_type_symbol
    _atom_site_label
    _atom_site_fract_x
    _atom_site_fract_y
    _atom_site_fract_z
    _atom_type_partial_charge
    O   O1    0.588425  0.051007  0.510270  -0.603593
    O   O2    0.948993  0.588425  0.510270  -0.603596
    O   O3    0.411575  0.948993  0.510270  -0.603571
    O   O4    0.051007  0.411575  0.510270  -0.603581
    O   O5    0.588425  0.948993  0.489730  -0.603599
    O   O6    0.948993  0.411575  0.489730  -0.603567
    O   O7    0.411575  0.051007  0.489730  -0.603584
    O   O8    0.051007  0.588425  0.489730  -0.603583
    O   O9    0.088425  0.551007  0.010270  -0.603586
    O   O10   0.448993  0.088425  0.010270  -0.603599
    O   O11   0.911575  0.448993  0.010270  -0.603577
    O   O12   0.551007  0.911575  0.010270  -0.603600
    O   O13   0.088425  0.448993  0.989730  -0.603581
    O   O14   0.448993  0.911575  0.989730  -0.603590
    O   O15   0.911575  0.551007  0.989730  -0.603579
    O   O16   0.551007  0.088425  0.989730  -0.603601
    C   C1    0.617546  0.000000  0.500000  0.649507
    C   C2    0.000000  0.617546  0.500000  0.649509
    C   C3    0.382454  0.000000  0.500000  0.649332
    C   C4    0.000000  0.382454  0.500000  0.649344
    C   C5    0.117546  0.500000  0.000000  0.649324
    C   C6    0.500000  0.117546  0.000000  0.649379
    C   C7    0.882454  0.500000  0.000000  0.649351
    C   C8    0.500000  0.882454  0.000000  0.649406
    O   O17   0.481692  0.051058  0.549616  -0.640989
    O   O18   0.948942  0.481692  0.549616  -0.640946
    O   O19   0.518308  0.948942  0.549616  -0.640989
    O   O20   0.051058  0.518308  0.549616  -0.640930
    O   O21   0.481692  0.948942  0.450384  -0.640942
    O   O22   0.948942  0.518308  0.450384  -0.640985
    O   O23   0.518308  0.051058  0.450384  -0.640929
    O   O24   0.051057  0.481692  0.450384  -0.640980
    O   O25   0.981692  0.551058  0.049616  -0.640990
    O   O26   0.448942  0.981692  0.049616  -0.641009
    O   O27   0.018308  0.448942  0.049616  -0.640986
    O   O28   0.551058  0.018308  0.049616  -0.641017
    O   O29   0.981692  0.448942  0.950384  -0.640981
    O   O30   0.448942  0.018308  0.950384  -0.641016
    O   O31   0.018308  0.551058  0.950384  -0.640987
    O   O32   0.551058  0.981692  0.950384  -0.641022
    C   C9    0.500000  0.000000  0.565828  0.858153
    C   C10   0.000000  0.500000  0.565828  0.858129
    C   C11   0.500000  0.000000  0.434172  0.858122
    C   C12   0.000000  0.500000  0.434172  0.858149
    C   C13   0.000000  0.500000  0.065828  0.858154
    C   C14   0.500000  0.000000  0.065828  0.858228
    C   C15   0.000000  0.500000  0.934172  0.858100
    C   C16   0.500000  0.000000  0.934172  0.858177
    Cu  Cu1   0.500000  0.060611  0.500000  0.979221
    Cu  Cu2   0.939388  0.500000  0.500000  0.979232
    Cu  Cu3   0.500000  0.939389  0.500000  0.979235
    Cu  Cu4   0.060611  0.500000  0.500000  0.979214
    Cu  Cu5   0.000000  0.560611  0.000000  0.979307
    Cu  Cu6   0.439389  0.000000  0.000000  0.979280
    Cu  Cu7   0.000000  0.439389  0.000000  0.979296
    Cu  Cu8   0.560612  0.000000  0.000000  0.979290
    C   C17   0.490453  0.945338  0.878348  -0.208718
    C   C18   0.054662  0.490453  0.878348  -0.208679
    C   C19   0.509547  0.054662  0.878348  -0.208767
    C   C20   0.945338  0.509547  0.878348  -0.208659
    C   C21   0.490453  0.054662  0.121652  -0.208682
    C   C22   0.054662  0.509547  0.121652  -0.208694
    C   C23   0.509547  0.945338  0.121652  -0.208663
    C   C24   0.945338  0.490453  0.121652  -0.208646
    C   C25   0.990453  0.445338  0.378348  -0.208689
    C   C26   0.554662  0.990453  0.378348  -0.208627
    C   C27   0.009547  0.554662  0.378348  -0.208749
    C   C28   0.445338  0.009547  0.378348  -0.208634
    C   C29   0.990453  0.554662  0.621652  -0.208626
    C   C30   0.554662  0.009547  0.621652  -0.208789
    C   C31   0.009547  0.445338  0.621652  -0.208634
    C   C32   0.445338  0.990453  0.621652  -0.208722
    H   H1    0.482649  0.902527  0.892450  0.136874
    H   H2    0.097473  0.482649  0.892450  0.136872
    H   H3    0.517351  0.097473  0.892450  0.136881
    H   H4    0.902527  0.517351  0.892450  0.136865
    H   H5    0.482650  0.097473  0.107550  0.136869
    H   H6    0.097473  0.517351  0.107550  0.136871
    H   H7    0.517350  0.902527  0.107550  0.136862
    H   H8    0.902527  0.482649  0.107550  0.136864
    H   H9    0.982649  0.402527  0.392450  0.136882
    H   H10   0.597473  0.982649  0.392450  0.136858
    H   H11   0.017350  0.597473  0.392450  0.136890
    H   H12   0.402527  0.017351  0.392450  0.136868
    H   H13   0.982649  0.597473  0.607550  0.136863
    H   H14   0.597473  0.017351  0.607550  0.136893
    H   H15   0.017351  0.402527  0.607550  0.136873
    H   H16   0.402527  0.982649  0.607550  0.136883
    C   C33   0.489801  0.945408  0.842470  -0.255522
    C   C34   0.054592  0.489801  0.842470  -0.255578
    C   C35   0.510199  0.054592  0.842470  -0.255464
    C   C36   0.945408  0.510199  0.842470  -0.255584
    C   C37   0.489801  0.054592  0.157530  -0.255583
    C   C38   0.054592  0.510199  0.157530  -0.255528
    C   C39   0.510199  0.945408  0.157530  -0.255586
    C   C40   0.945408  0.489801  0.157530  -0.255587
    C   C41   0.989801  0.445408  0.342470  -0.255580
    C   C42   0.554592  0.989801  0.342470  -0.255613
    C   C43   0.010198  0.554592  0.342470  -0.255510
    C   C44   0.445408  0.010199  0.342470  -0.255620
    C   C45   0.989801  0.554592  0.657530  -0.255615
    C   C46   0.554592  0.010199  0.657530  -0.255463
    C   C47   0.010199  0.445408  0.657530  -0.255626
    C   C48   0.445408  0.989801  0.657530  -0.255542
    H   H17   0.480889  0.902551  0.828628  0.157832
    H   H18   0.097449  0.480889  0.828628  0.157851
    H   H19   0.519111  0.097449  0.828628  0.157822
    H   H20   0.902552  0.519111  0.828628  0.157857
    H   H21   0.480889  0.097449  0.171372  0.157837
    H   H22   0.097448  0.519112  0.171372  0.157847
    H   H23   0.519111  0.902551  0.171372  0.157845
    H   H24   0.902551  0.480888  0.171372  0.157857
    H   H25   0.980888  0.402551  0.328628  0.157849
    H   H26   0.597448  0.980888  0.328628  0.157844
    H   H27   0.019111  0.597449  0.328628  0.157837
    H   H28   0.402551  0.019112  0.328628  0.157845
    H   H29   0.980888  0.597448  0.671372  0.157852
    H   H30   0.597448  0.019112  0.671372  0.157832
    H   H31   0.019112  0.402551  0.671372  0.157855
    H   H32   0.402552  0.980888  0.671372  0.157845
    C   C49   0.500000  0.000000  0.824333  0.748879
    C   C50   0.000000  0.500000  0.824333  0.748912
    C   C51   0.500000  0.000000  0.175666  0.748947
    C   C52   0.000000  0.500000  0.175667  0.748886
    C   C53   0.000000  0.500000  0.324333  0.748939
    C   C54   0.500000  0.000000  0.324333  0.749051
    C   C55   0.000000  0.500000  0.675667  0.749010
    C   C56   0.500000  0.000000  0.675666  0.748868
    C   C57   0.500000  0.000000  0.896265  -0.043344
    C   C58   0.000000  0.500000  0.896265  -0.043387
    C   C59   0.500000  0.000000  0.103735  -0.043440
    C   C60   0.000000  0.500000  0.103735  -0.043404
    C   C61   0.000000  0.500000  0.396265  -0.043362
    C   C62   0.500000  0.000000  0.396265  -0.043502
    C   C63   0.000000  0.500000  0.603735  -0.043492
    C   C64   0.500000  0.000000  0.603735  -0.043321
    C   C65   0.459894  0.038765  0.768018  0.356307
    C   C66   0.961235  0.459894  0.768018  0.356212
    C   C67   0.540106  0.961235  0.768018  0.356287
    C   C68   0.038765  0.540106  0.768018  0.356254
    C   C69   0.459894  0.961235  0.231982  0.356222
    C   C70   0.961235  0.540106  0.231982  0.356263
    C   C71   0.540106  0.038765  0.231982  0.356233
    C   C72   0.038765  0.459894  0.231982  0.356264
    C   C73   0.959894  0.538765  0.268018  0.356297
    C   C74   0.461235  0.959894  0.268018  0.356344
    C   C75   0.040106  0.461235  0.268018  0.356307
    C   C76   0.538765  0.040106  0.268018  0.356315
    C   C77   0.959894  0.461235  0.731982  0.356325
    C   C78   0.461235  0.040106  0.731982  0.356288
    C   C79   0.040106  0.538765  0.731982  0.356274
    C   C80   0.538765  0.959894  0.731982  0.356293
    C   C81   0.500000  0.000000  0.713910  -0.606649
    C   C82   0.000000  0.500000  0.713910  -0.606701
    C   C83   0.500000  0.000000  0.286090  -0.606726
    C   C84   0.000000  0.500000  0.286090  -0.606696
    C   C85   0.000000  0.500000  0.213910  -0.606631
    C   C86   0.500000  0.000000  0.213910  -0.606592
    C   C87   0.000000  0.500000  0.786090  -0.606581
    C   C88   0.500000  0.000000  0.786090  -0.606630
    C   C89   0.717831  0.960543  0.478131  -0.131762
    C   C90   0.039457  0.717831  0.478131  -0.131787
    C   C91   0.282169  0.039457  0.478131  -0.131844
    C   C92   0.960543  0.282169  0.478131  -0.131855
    C   C93   0.717831  0.039457  0.521869  -0.131789
    C   C94   0.039457  0.282169  0.521869  -0.131859
    C   C95   0.282169  0.960543  0.521869  -0.131862
    C   C96   0.960543  0.717831  0.521869  -0.131771
    C   C97   0.217831  0.460543  0.978131  -0.131835
    C   C98   0.539457  0.217831  0.978131  -0.131818
    C   C99   0.782169  0.539457  0.978131  -0.131850
    C   C100  0.460543  0.782169  0.978131  -0.131809
    C   C101  0.217831  0.539457  0.021869  -0.131838
    C   C102  0.539457  0.782169  0.021869  -0.131811
    C   C103  0.782169  0.460543  0.021869  -0.131829
    C   C104  0.460543  0.217831  0.021869  -0.131805
    H   H33   0.693292  0.929715  0.460656  0.140602
    H   H34   0.070285  0.693292  0.460656  0.140596
    H   H35   0.306708  0.070285  0.460656  0.140623
    H   H36   0.929715  0.306708  0.460656  0.140620
    H   H37   0.693292  0.070285  0.539344  0.140600
    H   H38   0.070285  0.306708  0.539344  0.140627
    H   H39   0.306708  0.929715  0.539344  0.140626
    H   H40   0.929715  0.693292  0.539344  0.140605
    H   H41   0.193292  0.429715  0.960656  0.140626
    H   H42   0.570285  0.193292  0.960656  0.140617
    H   H43   0.806708  0.570285  0.960656  0.140633
    H   H44   0.429715  0.806708  0.960656  0.140613
    H   H45   0.193292  0.570285  0.039344  0.140627
    H   H46   0.570285  0.806708  0.039344  0.140617
    H   H47   0.806708  0.429715  0.039344  0.140622
    H   H48   0.429715  0.193292  0.039344  0.140612
    C   C105  0.781938  0.961328  0.477694  -0.150286
    C   C106  0.038672  0.781938  0.477694  -0.150249
    C   C107  0.218062  0.038672  0.477694  -0.150281
    C   C108  0.961328  0.218062  0.477694  -0.150259
    C   C109  0.781938  0.038672  0.522306  -0.150264
    C   C110  0.038672  0.218062  0.522306  -0.150243
    C   C111  0.218062  0.961328  0.522306  -0.150265
    C   C112  0.961328  0.781938  0.522306  -0.150252
    C   C113  0.281938  0.461328  0.977694  -0.150275
    C   C114  0.538672  0.281938  0.977694  -0.150301
    C   C115  0.718062  0.538672  0.977694  -0.150253
    C   C116  0.461328  0.718062  0.977694  -0.150298
    C   C117  0.281938  0.538672  0.022306  -0.150273
    C   C118  0.538672  0.718062  0.022306  -0.150286
    C   C119  0.718062  0.461328  0.022306  -0.150265
    C   C120  0.461328  0.281938  0.022306  -0.150291
    H   H49   0.806449  0.930438  0.460243  0.137141
    H   H50   0.069561  0.806449  0.460243  0.137138
    H   H51   0.193551  0.069561  0.460243  0.137145
    H   H52   0.930438  0.193551  0.460243  0.137142
    H   H53   0.806449  0.069561  0.539757  0.137140
    H   H54   0.069561  0.193551  0.539757  0.137134
    H   H55   0.193551  0.930439  0.539757  0.137143
    H   H56   0.930438  0.806449  0.539757  0.137134
    H   H57   0.306449  0.430439  0.960243  0.137158
    H   H58   0.569562  0.306449  0.960243  0.137159
    H   H59   0.693551  0.569561  0.960243  0.137150
    H   H60   0.430439  0.693551  0.960243  0.137156
    H   H61   0.306449  0.569562  0.039757  0.137152
    H   H62   0.569562  0.693551  0.039757  0.137142
    H   H63   0.693551  0.430439  0.039757  0.137147
    H   H64   0.430439  0.306449  0.039757  0.137144
    C   C121  0.814233  0.000000  0.500000  0.055134
    C   C122  0.000000  0.814233  0.500000  0.055109
    C   C123  0.185767  0.000000  0.500000  0.055141
    C   C124  0.000000  0.185767  0.500000  0.055119
    C   C125  0.314233  0.500000  0.000000  0.055115
    C   C126  0.500000  0.314233  0.000000  0.055138
    C   C127  0.685767  0.500000  0.000000  0.055104
    C   C128  0.500000  0.685767  0.000000  0.055144
    C   C129  0.685551  0.000000  0.500000  0.050214
    C   C130  0.000000  0.685551  0.500000  0.050208
    C   C131  0.314449  0.000000  0.500000  0.050428
    C   C132  0.000000  0.314449  0.500000  0.050416
    C   C133  0.185551  0.500000  0.000000  0.050421
    C   C134  0.500000  0.185551  0.000000  0.050384
    C   C135  0.814449  0.500000  0.000000  0.050399
    C   C136  0.500000  0.814449  0.000000  0.050360
    O   O33   0.981263  0.088582  0.471550  -0.589457
    O   O34   0.911417  0.981263  0.471550  -0.589438
    O   O35   0.018737  0.911418  0.471550  -0.589445
    O   O36   0.088582  0.018737  0.471550  -0.589451
    O   O37   0.981263  0.911418  0.528450  -0.589426
    O   O38   0.911417  0.018737  0.528450  -0.589435
    O   O39   0.018737  0.088582  0.528450  -0.589436
    O   O40   0.088582  0.981263  0.528450  -0.589444
    O   O41   0.481263  0.588582  0.971550  -0.589492
    O   O42   0.411418  0.481263  0.971550  -0.589485
    O   O43   0.518737  0.411418  0.971550  -0.589498
    O   O44   0.588582  0.518737  0.971550  -0.589483
    O   O45   0.481263  0.411418  0.028450  -0.589467
    O   O46   0.411418  0.518737  0.028450  -0.589468
    O   O47   0.518737  0.588582  0.028450  -0.589467
    O   O48   0.588582  0.481263  0.028450  -0.589468
    C   C137  0.000000  0.117743  0.500000  0.662827
    C   C138  0.882257  0.000000  0.500000  0.662835
    C   C139  0.000000  0.882257  0.500000  0.662836
    C   C140  0.117743  0.000000  0.500000  0.662816
    C   C141  0.500000  0.617743  0.000000  0.662863
    C   C142  0.382257  0.500000  0.000000  0.662881
    C   C143  0.500000  0.382257  0.000000  0.662878
    C   C144  0.617743  0.500000  0.000000  0.662881
    Cu  Cu9   0.000000  0.000000  0.466181  0.940867
    Cu  Cu10  0.000000  0.000000  0.533819  0.940852
    Cu  Cu11  0.500000  0.500000  0.966181  0.940945
    Cu  Cu12  0.500000  0.500000  0.033819  0.940897
    N   N1    0.418412  0.077707  0.786416  -0.649273
    C   C145  0.364572  0.049863  0.795582  0.750188
    O   O49   0.360387  0.993313  0.795140  -0.576744
    C   C146  0.309652  0.087906  0.806008  -0.576484
    H   H65   0.414307  0.123111  0.778291  0.319910
    H   H66   0.321305  0.138138  0.805818  0.120147
    H   H67   0.294987  0.074370  0.832634  0.186085
    H   H68   0.270917  0.079151  0.787582  0.165499
    N   N2    0.922293  0.418412  0.786416  -0.649197
    C   C147  0.950137  0.364572  0.795582  0.750195
    O   O50   0.006688  0.360387  0.795140  -0.576739
    C   C148  0.912094  0.309652  0.806008  -0.576642
    H   H69   0.876889  0.414306  0.778291  0.319888
    H   H70   0.861862  0.321305  0.805818  0.120186
    H   H71   0.925630  0.294987  0.832634  0.186136
    H   H72   0.920849  0.270917  0.787582  0.165557
    N   N3    0.581588  0.922293  0.786416  -0.649243
    C   C149  0.635428  0.950137  0.795582  0.750214
    O   O51   0.639613  0.006687  0.795140  -0.576761
    C   C150  0.690348  0.912094  0.806008  -0.576519
    H   H73   0.585694  0.876889  0.778291  0.319894
    H   H74   0.678695  0.861862  0.805818  0.120155
    H   H75   0.705013  0.925630  0.832634  0.186092
    H   H76   0.729083  0.920849  0.787582  0.165509
    N   N4    0.077707  0.581588  0.786416  -0.649216
    C   C151  0.049863  0.635428  0.795582  0.750195
    O   O52   0.993313  0.639613  0.795140  -0.576736
    C   C152  0.087906  0.690348  0.806008  -0.576646
    H   H77   0.123111  0.585693  0.778291  0.319901
    H   H78   0.138139  0.678695  0.805818  0.120184
    H   H79   0.074371  0.705013  0.832634  0.186139
    H   H80   0.079151  0.729083  0.787582  0.165559
    N   N5    0.418412  0.922293  0.213584  -0.649198
    C   C153  0.364572  0.950138  0.204418  0.750194
    O   O53   0.360387  0.006688  0.204860  -0.576740
    C   C154  0.309651  0.912094  0.193992  -0.576571
    H   H81   0.414306  0.876889  0.221709  0.319884
    H   H82   0.321305  0.861862  0.194182  0.120166
    H   H83   0.294987  0.925630  0.167366  0.186107
    H   H84   0.270917  0.920850  0.212418  0.165529
    N   N6    0.922292  0.581587  0.213584  -0.649196
    C   C155  0.950137  0.635428  0.204418  0.750189
    O   O54   0.006687  0.639613  0.204860  -0.576715
    C   C156  0.912093  0.690348  0.193992  -0.576675
    H   H85   0.876888  0.585693  0.221709  0.319893
    H   H86   0.861861  0.678695  0.194182  0.120212
    H   H87   0.925629  0.705013  0.167366  0.186147
    H   H88   0.920848  0.729083  0.212418  0.165571
    N   N7    0.581588  0.077707  0.213584  -0.649162
    C   C157  0.635428  0.049863  0.204418  0.750155
    O   O55   0.639613  0.993312  0.204860  -0.576740
    C   C158  0.690348  0.087906  0.193992  -0.576569
    H   H89   0.585694  0.123111  0.221709  0.319882
    H   H90   0.678695  0.138138  0.194182  0.120170
    H   H91   0.705013  0.074370  0.167366  0.186110
    H   H92   0.729083  0.079151  0.212418  0.165528
    N   N8    0.077707  0.418412  0.213584  -0.649220
    C   C159  0.049863  0.364572  0.204418  0.750183
    O   O56   0.993313  0.360387  0.204860  -0.576710
    C   C160  0.087906  0.309652  0.193992  -0.576654
    H   H93   0.123111  0.414307  0.221709  0.319905
    H   H94   0.138139  0.321305  0.194182  0.120198
    H   H95   0.074371  0.294987  0.167366  0.186145
    H   H96   0.079151  0.270917  0.212418  0.165565
    N   N9    0.918412  0.577707  0.286416  -0.649233
    C   C161  0.864572  0.549863  0.295582  0.750173
    O   O57   0.860387  0.493313  0.295140  -0.576718
    C   C162  0.809651  0.587906  0.306008  -0.576594
    H   H97   0.914306  0.623111  0.278291  0.319908
    H   H98   0.821305  0.638138  0.305818  0.120188
    H   H99   0.794987  0.574370  0.332634  0.186131
    H   H100  0.770917  0.579151  0.287582  0.165551
    N   N10   0.422292  0.918413  0.286416  -0.649247
    C   C163  0.450137  0.864572  0.295582  0.750200
    O   O58   0.506687  0.860387  0.295140  -0.576746
    C   C164  0.412093  0.809652  0.306008  -0.576538
    H   H101  0.376888  0.914307  0.278291  0.319901
    H   H102  0.361861  0.821306  0.305818  0.120160
    H   H103  0.425629  0.794987  0.332634  0.186106
    H   H104  0.420848  0.770917  0.287582  0.165519
    N   N11   0.081588  0.422293  0.286416  -0.649233
    C   C165  0.135428  0.450137  0.295582  0.750192
    O   O59   0.139613  0.506687  0.295140  -0.576736
    C   C166  0.190348  0.412094  0.306008  -0.576608
    H   H105  0.085693  0.376889  0.278291  0.319909
    H   H106  0.178695  0.361862  0.305818  0.120193
    H   H107  0.205013  0.425630  0.332634  0.186133
    H   H108  0.229083  0.420849  0.287582  0.165553
    N   N12   0.577707  0.081587  0.286416  -0.649238
    C   C167  0.549863  0.135428  0.295582  0.750155
    O   O60   0.493313  0.139613  0.295140  -0.576731
    C   C168  0.587907  0.190348  0.306008  -0.576516
    H   H109  0.623111  0.085693  0.278291  0.319908
    H   H110  0.638139  0.178694  0.305818  0.120161
    H   H111  0.574371  0.205013  0.332634  0.186095
    H   H112  0.579152  0.229083  0.287582  0.165519
    N   N13   0.918413  0.422293  0.713584  -0.649224
    C   C169  0.864572  0.450137  0.704418  0.750231
    O   O61   0.860387  0.506687  0.704860  -0.576750
    C   C170  0.809652  0.412093  0.693992  -0.576635
    H   H113  0.914307  0.376889  0.721709  0.319897
    H   H114  0.821306  0.361861  0.694182  0.120190
    H   H115  0.794987  0.425629  0.667366  0.186135
    H   H116  0.770917  0.420848  0.712418  0.165551
    N   N14   0.422293  0.081588  0.713584  -0.649232
    C   C171  0.450137  0.135428  0.704418  0.750222
    O   O62   0.506687  0.139613  0.704860  -0.576762
    C   C172  0.412094  0.190348  0.693992  -0.576531
    H   H117  0.376889  0.085693  0.721709  0.319900
    H   H118  0.361861  0.178695  0.694182  0.120155
    H   H119  0.425629  0.205013  0.667366  0.186100
    H   H120  0.420848  0.229083  0.712418  0.165514
    N   N15   0.081588  0.577707  0.713584  -0.649216
    C   C173  0.135428  0.549863  0.704418  0.750193
    O   O63   0.139613  0.493313  0.704860  -0.576734
    C   C174  0.190348  0.587906  0.693992  -0.576615
    H   H121  0.085693  0.623111  0.721709  0.319910
    H   H122  0.178695  0.638139  0.694182  0.120184
    H   H123  0.205013  0.574371  0.667366  0.186125
    H   H124  0.229083  0.579151  0.712418  0.165550
    N   N16   0.577707  0.918412  0.713584  -0.649250
    C   C175  0.549863  0.864572  0.704418  0.750211
    O   O64   0.493313  0.860387  0.704860  -0.576746
    C   C176  0.587906  0.809652  0.693992  -0.576514
    H   H125  0.623111  0.914307  0.721709  0.319907
    H   H126  0.638139  0.821305  0.694182  0.120152
    H   H127  0.574371  0.794987  0.667366  0.186097
    H   H128  0.579152  0.770917  0.712418  0.165507
