# Generated by REPEAT Assigner based on pymatgen
data_DB0-m2_o1_o3_f0_nbo.sym.103_sqe
_audit_creation_date              2022-05-24
_audit_creation_method            REPEAT_Assigner
_cell_length_a                    21.499774
_cell_length_b                    21.499774
_cell_length_c                    38.398814
_cell_angle_alpha                 90.000000
_cell_angle_beta                  90.000000
_cell_angle_gamma                 90.000000
_cell_volume                      17749.478284
_symmetry_space_group_name_H-M    P1
_symmetry_Int_Tables_number       1
loop_
    _symmetry_equiv_pos_site_id
    _symmetry_equiv_pos_as_xyz
    1  x,y,z
loop_
    _atom_site_type_symbol
    _atom_site_label
    _atom_site_fract_x
    _atom_site_fract_y
    _atom_site_fract_z
    _atom_type_partial_charge
    O   O1    0.588446  0.051039  0.510207  -0.621024
    O   O2    0.948961  0.588446  0.510207  -0.621022
    O   O3    0.411554  0.948961  0.510207  -0.621020
    O   O4    0.051039  0.411554  0.510207  -0.621027
    O   O5    0.588447  0.948963  0.489794  -0.621006
    O   O6    0.948963  0.411552  0.489793  -0.621019
    O   O7    0.411553  0.051037  0.489794  -0.621004
    O   O8    0.051037  0.588447  0.489793  -0.621012
    O   O9    0.088446  0.551039  0.010206  -0.621041
    O   O10   0.448961  0.088446  0.010207  -0.621029
    O   O11   0.911554  0.448961  0.010206  -0.621038
    O   O12   0.551039  0.911554  0.010207  -0.621035
    O   O13   0.088447  0.448963  0.989794  -0.621051
    O   O14   0.448963  0.911553  0.989794  -0.621040
    O   O15   0.911553  0.551037  0.989794  -0.621057
    O   O16   0.551037  0.088447  0.989794  -0.621032
    C   C1    0.617564  0.000001  0.500000  0.755376
    C   C2    0.999999  0.617563  0.500000  0.755397
    C   C3    0.382437  0.999999  0.500000  0.755382
    C   C4    0.000002  0.382436  0.500000  0.755404
    C   C5    0.117564  0.500001  0.000000  0.755435
    C   C6    0.499999  0.117563  0.000000  0.755402
    C   C7    0.882436  0.499998  0.000000  0.755444
    C   C8    0.500001  0.882436  0.000000  0.755423
    O   O17   0.481822  0.051095  0.549635  -0.649849
    O   O18   0.948905  0.481821  0.549635  -0.649855
    O   O19   0.518178  0.948905  0.549635  -0.649841
    O   O20   0.051095  0.518178  0.549634  -0.649879
    O   O21   0.481823  0.948904  0.450365  -0.649856
    O   O22   0.948905  0.518177  0.450365  -0.649877
    O   O23   0.518177  0.051095  0.450366  -0.649874
    O   O24   0.051096  0.481823  0.450365  -0.649890
    O   O25   0.981822  0.551095  0.049635  -0.649878
    O   O26   0.448905  0.981822  0.049635  -0.649867
    O   O27   0.018178  0.448905  0.049635  -0.649879
    O   O28   0.551095  0.018178  0.049635  -0.649871
    O   O29   0.981823  0.448904  0.950365  -0.649884
    O   O30   0.448905  0.018177  0.950365  -0.649882
    O   O31   0.018177  0.551095  0.950365  -0.649878
    O   O32   0.551095  0.981823  0.950366  -0.649900
    C   C9    0.500000  0.000000  0.565844  0.754281
    C   C10   0.000000  0.500000  0.565844  0.754308
    C   C11   0.500000  0.000000  0.434156  0.754225
    C   C12   0.000000  0.500000  0.434156  0.754302
    C   C13   0.000000  0.500000  0.065844  0.754310
    C   C14   0.500000  0.000000  0.065844  0.754321
    C   C15   0.000000  0.500000  0.934156  0.754318
    C   C16   0.500000  0.000000  0.934156  0.754341
    Cu  Cu1   0.500000  0.060632  0.500000  1.020044
    Cu  Cu2   0.939368  0.499999  0.500000  1.020027
    Cu  Cu3   0.500001  0.939367  0.500000  1.020021
    Cu  Cu4   0.060632  0.500000  0.500000  1.020056
    Cu  Cu5   0.999999  0.560632  0.000000  1.020056
    Cu  Cu6   0.439368  0.999999  0.000000  1.020035
    Cu  Cu7   0.000001  0.439367  0.000000  1.020051
    Cu  Cu8   0.560632  0.000001  0.000000  1.020052
    C   C17   0.487218  0.946113  0.878397  -0.223900
    C   C18   0.053885  0.487213  0.878396  -0.223743
    C   C19   0.512782  0.053886  0.878397  -0.223908
    C   C20   0.946115  0.512787  0.878396  -0.223742
    C   C21   0.487235  0.053890  0.121604  -0.223765
    C   C22   0.053890  0.512765  0.121603  -0.223831
    C   C23   0.512765  0.946109  0.121604  -0.223771
    C   C24   0.946110  0.487234  0.121603  -0.223822
    C   C25   0.987218  0.446114  0.378396  -0.223882
    C   C26   0.553886  0.987217  0.378397  -0.223898
    C   C27   0.012783  0.553886  0.378396  -0.223899
    C   C28   0.446114  0.012783  0.378397  -0.223894
    C   C29   0.987239  0.553891  0.621603  -0.223758
    C   C30   0.553890  0.012766  0.621604  -0.223783
    C   C31   0.012761  0.446108  0.621603  -0.223749
    C   C32   0.446110  0.987233  0.621604  -0.223795
    H   H1    0.476198  0.904289  0.892754  0.167500
    H   H2    0.095708  0.476188  0.892753  0.167481
    H   H3    0.523802  0.095710  0.892754  0.167497
    H   H4    0.904292  0.523811  0.892753  0.167477
    H   H5    0.476227  0.095717  0.107247  0.167468
    H   H6    0.095717  0.523774  0.107246  0.167485
    H   H7    0.523773  0.904282  0.107246  0.167471
    H   H8    0.904283  0.476226  0.107246  0.167486
    H   H9    0.976197  0.404290  0.392754  0.167472
    H   H10   0.595710  0.976195  0.392754  0.167493
    H   H11   0.023804  0.595710  0.392754  0.167484
    H   H12   0.404290  0.023804  0.392754  0.167488
    H   H13   0.976234  0.595719  0.607246  0.167478
    H   H14   0.595717  0.023775  0.607247  0.167474
    H   H15   0.023766  0.404280  0.607246  0.167479
    H   H16   0.404283  0.976224  0.607246  0.167478
    C   C33   0.485031  0.946105  0.842508  -0.146858
    C   C34   0.053893  0.485026  0.842508  -0.147114
    C   C35   0.514969  0.053894  0.842508  -0.146852
    C   C36   0.946107  0.514974  0.842507  -0.147113
    C   C37   0.485047  0.053899  0.157492  -0.146782
    C   C38   0.053899  0.514954  0.157492  -0.146748
    C   C39   0.514953  0.946101  0.157493  -0.146782
    C   C40   0.946101  0.485046  0.157492  -0.146760
    C   C41   0.985031  0.446105  0.342508  -0.146866
    C   C42   0.553894  0.985030  0.342508  -0.146880
    C   C43   0.014970  0.553894  0.342508  -0.146854
    C   C44   0.446106  0.014970  0.342508  -0.146871
    C   C45   0.985051  0.553900  0.657492  -0.146756
    C   C46   0.553899  0.014954  0.657492  -0.146768
    C   C47   0.014950  0.446100  0.657492  -0.146757
    C   C48   0.446102  0.985045  0.657493  -0.146773
    C   C49   0.500000  0.000000  0.824208  0.143326
    C   C50   0.000000  0.500000  0.824208  0.143491
    C   C51   0.500000  0.000000  0.175792  0.143111
    C   C52   0.000000  0.500000  0.175792  0.143064
    C   C53   0.000000  0.500000  0.324208  0.143307
    C   C54   0.500000  0.000000  0.324208  0.143307
    C   C55   0.000000  0.500000  0.675792  0.143067
    C   C56   0.500000  0.000000  0.675792  0.143080
    C   C57   0.500000  0.000000  0.896253  0.126109
    C   C58   0.000000  0.500000  0.896253  0.126009
    C   C59   0.500000  0.000000  0.103747  0.125948
    C   C60   0.000000  0.500000  0.103747  0.126023
    C   C61   0.000000  0.500000  0.396253  0.126111
    C   C62   0.500000  0.000000  0.396253  0.126164
    C   C63   0.000000  0.500000  0.603747  0.125912
    C   C64   0.500000  0.000000  0.603747  0.125960
    C   C65   0.460585  0.039082  0.767929  -0.096440
    C   C66   0.960914  0.460588  0.767929  -0.096643
    C   C67   0.539415  0.960917  0.767929  -0.096467
    C   C68   0.039086  0.539412  0.767929  -0.096645
    C   C69   0.460575  0.960928  0.232071  -0.096393
    C   C70   0.960928  0.539425  0.232071  -0.096401
    C   C71   0.539425  0.039072  0.232071  -0.096389
    C   C72   0.039073  0.460575  0.232071  -0.096406
    C   C73   0.960585  0.539083  0.267929  -0.096418
    C   C74   0.460917  0.960586  0.267929  -0.096436
    C   C75   0.039415  0.460917  0.267929  -0.096429
    C   C76   0.539083  0.039414  0.267929  -0.096444
    C   C77   0.960572  0.460930  0.732071  -0.096293
    C   C78   0.460927  0.039424  0.732071  -0.096371
    C   C79   0.039428  0.539069  0.732071  -0.096290
    C   C80   0.539073  0.960575  0.732071  -0.096358
    H   H17   0.429271  0.069537  0.781854  0.100886
    H   H18   0.930456  0.429277  0.781854  0.100947
    H   H19   0.570729  0.930462  0.781854  0.100894
    H   H20   0.069544  0.570723  0.781854  0.100948
    H   H21   0.429253  0.930481  0.218146  0.100904
    H   H22   0.930480  0.570747  0.218146  0.100897
    H   H23   0.570747  0.069519  0.218146  0.100904
    H   H24   0.069520  0.429253  0.218146  0.100903
    H   H25   0.929272  0.569539  0.281854  0.100874
    H   H26   0.430461  0.929272  0.281854  0.100883
    H   H27   0.070728  0.430461  0.281854  0.100877
    H   H28   0.569539  0.070727  0.281854  0.100884
    H   H29   0.929248  0.430485  0.718146  0.100875
    H   H30   0.430479  0.070746  0.718146  0.100888
    H   H31   0.070752  0.569514  0.718146  0.100870
    H   H32   0.569521  0.929254  0.718146  0.100887
    C   C81   0.500000  0.000000  0.713989  -0.153357
    C   C82   0.000000  0.500000  0.713989  -0.153369
    C   C83   0.500000  0.000000  0.286011  -0.153527
    C   C84   0.000000  0.500000  0.286011  -0.153541
    C   C85   0.000000  0.500000  0.213989  -0.153344
    C   C86   0.500000  0.000000  0.213989  -0.153381
    C   C87   0.000000  0.500000  0.786011  -0.153294
    C   C88   0.500000  0.000000  0.786011  -0.153542
    C   C89   0.717836  0.960648  0.478071  -0.081816
    C   C90   0.039352  0.717836  0.478071  -0.081805
    C   C91   0.282164  0.039352  0.478071  -0.081818
    C   C92   0.960649  0.282164  0.478071  -0.081803
    C   C93   0.717836  0.039355  0.521929  -0.081722
    C   C94   0.039355  0.282164  0.521929  -0.081697
    C   C95   0.282164  0.960645  0.521929  -0.081699
    C   C96   0.960645  0.717836  0.521929  -0.081685
    C   C97   0.217836  0.460648  0.978071  -0.081849
    C   C98   0.539352  0.217836  0.978071  -0.081852
    C   C99   0.782164  0.539352  0.978071  -0.081872
    C   C100  0.460648  0.782164  0.978071  -0.081853
    C   C101  0.217836  0.539355  0.021928  -0.081738
    C   C102  0.539355  0.782164  0.021929  -0.081749
    C   C103  0.782164  0.460644  0.021928  -0.081763
    C   C104  0.460645  0.217836  0.021929  -0.081742
    H   H33   0.693290  0.929911  0.460548  0.121143
    H   H34   0.070089  0.693290  0.460548  0.121141
    H   H35   0.306710  0.070089  0.460548  0.121146
    H   H36   0.929912  0.306709  0.460548  0.121143
    H   H37   0.693290  0.070092  0.539452  0.121100
    H   H38   0.070092  0.306709  0.539452  0.121089
    H   H39   0.306710  0.929908  0.539452  0.121092
    H   H40   0.929908  0.693290  0.539452  0.121085
    H   H41   0.193290  0.429911  0.960548  0.121151
    H   H42   0.570089  0.193290  0.960548  0.121155
    H   H43   0.806710  0.570089  0.960548  0.121160
    H   H44   0.429911  0.806710  0.960548  0.121157
    H   H45   0.193290  0.570092  0.039452  0.121087
    H   H46   0.570092  0.806710  0.039452  0.121099
    H   H47   0.806710  0.429908  0.039452  0.121094
    H   H48   0.429908  0.193290  0.039452  0.121096
    C   C105  0.781941  0.961433  0.477636  -0.099416
    C   C106  0.038567  0.781940  0.477636  -0.099412
    C   C107  0.218060  0.038567  0.477636  -0.099411
    C   C108  0.961434  0.218059  0.477636  -0.099426
    C   C109  0.781941  0.038569  0.522364  -0.099468
    C   C110  0.038570  0.218059  0.522364  -0.099484
    C   C111  0.218060  0.961430  0.522364  -0.099473
    C   C112  0.961430  0.781940  0.522364  -0.099478
    C   C113  0.281940  0.461433  0.977636  -0.099402
    C   C114  0.538567  0.281940  0.977636  -0.099406
    C   C115  0.718060  0.538566  0.977636  -0.099375
    C   C116  0.461433  0.718059  0.977636  -0.099412
    C   C117  0.281940  0.538570  0.022364  -0.099438
    C   C118  0.538570  0.718059  0.022364  -0.099447
    C   C119  0.718059  0.461430  0.022364  -0.099420
    C   C120  0.461430  0.281940  0.022364  -0.099447
    H   H49   0.806446  0.930627  0.460136  0.119232
    H   H50   0.069373  0.806446  0.460136  0.119225
    H   H51   0.193554  0.069373  0.460136  0.119229
    H   H52   0.930628  0.193554  0.460136  0.119228
    H   H53   0.806447  0.069375  0.539864  0.119253
    H   H54   0.069376  0.193553  0.539864  0.119255
    H   H55   0.193554  0.930624  0.539864  0.119255
    H   H56   0.930625  0.806446  0.539864  0.119252
    H   H57   0.306446  0.430627  0.960136  0.119225
    H   H58   0.569373  0.306446  0.960136  0.119225
    H   H59   0.693554  0.569373  0.960137  0.119214
    H   H60   0.430627  0.693554  0.960136  0.119227
    H   H61   0.306446  0.569376  0.039864  0.119232
    H   H62   0.569375  0.693553  0.039864  0.119236
    H   H63   0.693554  0.430624  0.039864  0.119232
    H   H64   0.430624  0.306446  0.039864  0.119236
    C   C121  0.814236  0.000001  0.500000  -0.011025
    C   C122  0.999999  0.814235  0.500000  -0.011038
    C   C123  0.185765  0.999998  0.500000  -0.011034
    C   C124  0.000002  0.185764  0.500000  -0.011015
    C   C125  0.314236  0.500001  0.000000  -0.011028
    C   C126  0.499999  0.314235  0.000000  -0.011018
    C   C127  0.685764  0.499998  0.000000  -0.011039
    C   C128  0.500001  0.685764  0.000000  -0.011004
    C   C129  0.685561  0.000001  0.500000  -0.072616
    C   C130  0.999998  0.685561  0.500000  -0.072651
    C   C131  0.314439  0.999998  0.500000  -0.072628
    C   C132  0.000002  0.314439  0.500000  -0.072645
    C   C133  0.185561  0.500002  0.000000  -0.072597
    C   C134  0.499998  0.185561  0.000000  -0.072594
    C   C135  0.814439  0.499998  0.000000  -0.072589
    C   C136  0.500002  0.814439  0.000000  -0.072604
    O   O33   0.981272  0.088581  0.471547  -0.578053
    O   O34   0.911419  0.981272  0.471547  -0.578055
    O   O35   0.018728  0.911419  0.471547  -0.578053
    O   O36   0.088581  0.018728  0.471547  -0.578052
    O   O37   0.981271  0.911419  0.528453  -0.578038
    O   O38   0.911419  0.018729  0.528453  -0.578044
    O   O39   0.018730  0.088581  0.528453  -0.578049
    O   O40   0.088581  0.981270  0.528453  -0.578041
    O   O41   0.481272  0.588581  0.971547  -0.578020
    O   O42   0.411419  0.481272  0.971547  -0.578024
    O   O43   0.518728  0.411419  0.971547  -0.578017
    O   O44   0.588581  0.518728  0.971547  -0.578018
    O   O45   0.481270  0.411419  0.028453  -0.578037
    O   O46   0.411419  0.518729  0.028453  -0.578041
    O   O47   0.518729  0.588581  0.028453  -0.578040
    O   O48   0.588581  0.481270  0.028453  -0.578045
    C   C137  0.000001  0.117742  0.500000  0.674257
    C   C138  0.882258  0.000001  0.500000  0.674262
    C   C139  0.999999  0.882258  0.500000  0.674266
    C   C140  0.117742  0.999999  0.500000  0.674258
    C   C141  0.500001  0.617742  0.000000  0.674224
    C   C142  0.382258  0.500001  0.000000  0.674240
    C   C143  0.499999  0.382258  0.000000  0.674227
    C   C144  0.617742  0.499999  0.000000  0.674232
    Cu  Cu9   0.000000  0.000000  0.466178  0.938428
    Cu  Cu10  0.000000  0.000000  0.533822  0.938423
    Cu  Cu11  0.500000  0.500000  0.966178  0.938420
    Cu  Cu12  0.500000  0.500000  0.033822  0.938432
    C   C145  0.466022  0.888306  0.825029  0.834478
    O   O49   0.489555  0.839209  0.833894  -0.546033
    N   N1    0.415459  0.887686  0.800862  -0.788876
    H   H65   0.433183  0.876518  0.776338  0.333386
    H   H66   0.395461  0.931865  0.799940  0.302883
    C   C146  0.111691  0.466012  0.825029  0.834695
    O   O50   0.160789  0.489541  0.833894  -0.546106
    N   N2    0.112306  0.415449  0.800862  -0.788924
    H   H67   0.123475  0.433172  0.776338  0.333366
    H   H68   0.068126  0.395455  0.799939  0.302835
    C   C147  0.533978  0.111694  0.825029  0.834500
    O   O51   0.510445  0.160790  0.833894  -0.546032
    N   N3    0.584541  0.112313  0.800862  -0.788899
    H   H69   0.566818  0.123480  0.776338  0.333385
    H   H70   0.604539  0.068135  0.799939  0.302892
    C   C148  0.888309  0.533988  0.825029  0.834686
    O   O52   0.839211  0.510458  0.833894  -0.546100
    N   N4    0.887694  0.584551  0.800862  -0.788930
    H   H71   0.876525  0.566828  0.776338  0.333366
    H   H72   0.931874  0.604545  0.799939  0.302841
    C   C149  0.466052  0.111703  0.174971  0.834326
    O   O53   0.489598  0.160793  0.166106  -0.546003
    N   N5    0.415489  0.112335  0.199138  -0.788829
    H   H73   0.433216  0.123499  0.223662  0.333420
    H   H74   0.395479  0.068162  0.200060  0.302886
    C   C150  0.111703  0.533949  0.174971  0.834347
    O   O54   0.160793  0.510403  0.166106  -0.546021
    N   N6    0.112335  0.584512  0.199138  -0.788854
    H   H75   0.123498  0.566786  0.223662  0.333429
    H   H76   0.068162  0.604521  0.200060  0.302881
    C   C151  0.533948  0.888297  0.174971  0.834306
    O   O55   0.510401  0.839206  0.166106  -0.545994
    N   N7    0.584511  0.887664  0.199138  -0.788816
    H   H77   0.566785  0.876502  0.223662  0.333415
    H   H78   0.604521  0.931837  0.200061  0.302878
    C   C152  0.888297  0.466051  0.174971  0.834333
    O   O56   0.839206  0.489597  0.166106  -0.546019
    N   N8    0.887665  0.415488  0.199138  -0.788844
    H   H79   0.876502  0.433215  0.223662  0.333426
    H   H80   0.931838  0.395479  0.200060  0.302884
    C   C153  0.966020  0.388306  0.325029  0.834544
    O   O57   0.989553  0.339210  0.333894  -0.546048
    N   N9    0.915457  0.387688  0.300862  -0.788917
    H   H81   0.933181  0.376520  0.276338  0.333369
    H   H82   0.895460  0.431866  0.299939  0.302893
    C   C154  0.611693  0.966019  0.325029  0.834518
    O   O58   0.660790  0.989552  0.333894  -0.546032
    N   N10   0.612312  0.915456  0.300862  -0.788872
    H   H83   0.623479  0.933179  0.276337  0.333361
    H   H84   0.568133  0.895459  0.299939  0.302882
    C   C155  0.033980  0.611693  0.325029  0.834529
    O   O59   0.010447  0.660790  0.333894  -0.546052
    N   N11   0.084543  0.612312  0.300862  -0.788905
    H   H85   0.066819  0.623480  0.276338  0.333370
    H   H86   0.104540  0.568134  0.299939  0.302889
    C   C156  0.388307  0.033981  0.325029  0.834500
    O   O60   0.339210  0.010448  0.333894  -0.546033
    N   N12   0.387689  0.084543  0.300862  -0.788889
    H   H87   0.376519  0.066818  0.276338  0.333372
    H   H88   0.431867  0.104540  0.299940  0.302904
    C   C157  0.966060  0.611705  0.674971  0.834286
    O   O61   0.989609  0.660794  0.666106  -0.546006
    N   N13   0.915496  0.612341  0.699138  -0.788837
    H   H89   0.933223  0.623502  0.723662  0.333454
    H   H90   0.895484  0.568169  0.700060  0.302858
    C   C158  0.611703  0.033950  0.674971  0.834363
    O   O62   0.660793  0.010405  0.666106  -0.546027
    N   N14   0.612334  0.084513  0.699138  -0.788845
    H   H91   0.623498  0.066786  0.723662  0.333417
    H   H92   0.568160  0.104522  0.700060  0.302870
    C   C159  0.033941  0.388294  0.674971  0.834267
    O   O63   0.010391  0.339205  0.666106  -0.546002
    N   N15   0.084504  0.387659  0.699138  -0.788845
    H   H93   0.066776  0.376497  0.723662  0.333456
    H   H94   0.104516  0.431830  0.700060  0.302875
    C   C160  0.388298  0.966049  0.674971  0.834360
    O   O64   0.339207  0.989595  0.666106  -0.546027
    N   N16   0.387666  0.915486  0.699138  -0.788837
    H   H95   0.376504  0.933212  0.723662  0.333411
    H   H96   0.431839  0.895478  0.700061  0.302865
