# Generated by REPEAT Assigner based on pymatgen
data_DB0-m2_o1_o3_f0_nbo.sym.15
_audit_creation_date              2022-05-24
_audit_creation_method            REPEAT_Assigner
_cell_length_a                    21.510954
_cell_length_b                    21.510954
_cell_length_c                    38.485846
_cell_angle_alpha                 90.000000
_cell_angle_beta                  90.000000
_cell_angle_gamma                 90.000000
_cell_volume                      17808.214731
_symmetry_space_group_name_H-M    P1
_symmetry_Int_Tables_number       1
loop_
    _symmetry_equiv_pos_site_id
    _symmetry_equiv_pos_as_xyz
    1  x,y,z
loop_
    _atom_site_type_symbol
    _atom_site_label
    _atom_site_fract_x
    _atom_site_fract_y
    _atom_site_fract_z
    _atom_type_partial_charge
    C   C1    0.617620  0.000000  0.500000  0.687746
    C   C2    0.000000  0.500000  0.565772  0.758316
    C   C3    0.447667  0.781997  0.989747  -0.477517
    C   C4    0.218003  0.552333  0.010253  -0.477519
    C   C5    0.552333  0.781997  0.010253  -0.477509
    C   C6    0.781997  0.447667  0.010253  -0.477470
    C   C7    0.447667  0.218003  0.010253  -0.477477
    C   C8    0.782099  0.948037  0.488901  0.466670
    C   C9    0.051963  0.782099  0.488901  0.466612
    C   C10   0.217901  0.051963  0.488901  0.466733
    C   C11   0.948037  0.217901  0.488901  0.466649
    C   C12   0.782099  0.051963  0.511099  0.466698
    C   C13   0.500000  0.000000  0.434228  0.758283
    C   C14   0.051963  0.217901  0.511099  0.466734
    C   C15   0.217901  0.948037  0.511099  0.466729
    C   C16   0.948037  0.782099  0.511099  0.466633
    C   C17   0.282099  0.448037  0.988901  0.466661
    C   C18   0.551963  0.282099  0.988901  0.466693
    C   C19   0.717901  0.551963  0.988901  0.466721
    C   C20   0.448037  0.717901  0.988901  0.466760
    C   C21   0.282099  0.551963  0.011099  0.466756
    C   C22   0.551963  0.717901  0.011099  0.466733
    C   C23   0.717901  0.448036  0.011099  0.466695
    C   C24   0.000000  0.500000  0.434228  0.758270
    C   C25   0.448037  0.282099  0.011099  0.466636
    C   C26   0.814338  0.000000  0.500000  -0.333970
    C   C27   0.000000  0.814338  0.500000  -0.333886
    C   C28   0.185662  0.000000  0.500000  -0.334018
    C   C29   0.000000  0.185662  0.500000  -0.333976
    C   C30   0.314338  0.500000  0.000000  -0.333996
    C   C31   0.500000  0.314338  0.000000  -0.333921
    C   C32   0.685662  0.500000  0.000000  -0.334035
    C   C33   0.500000  0.685662  0.000000  -0.334026
    C   C34   0.685696  0.000000  0.500000  0.221771
    C   C35   0.000000  0.500000  0.065772  0.758312
    C   C36   0.000000  0.685696  0.500000  0.221756
    C   C37   0.314304  0.000000  0.500000  0.221738
    C   C38   0.000000  0.314304  0.500000  0.221773
    C   C39   0.185696  0.500000  0.000000  0.221747
    C   C40   0.500000  0.185696  0.000000  0.221721
    C   C41   0.814304  0.500000  0.000000  0.221688
    C   C42   0.500000  0.814304  0.000000  0.221740
    C   C43   0.000000  0.117706  0.500000  0.668189
    C   C44   0.882294  0.000000  0.500000  0.668173
    C   C45   0.000000  0.882294  0.500000  0.668126
    C   C46   0.500000  0.000000  0.065772  0.758292
    C   C47   0.117706  0.000000  0.500000  0.668243
    C   C48   0.500000  0.617706  0.000000  0.668234
    C   C49   0.382294  0.500000  0.000000  0.668220
    C   C50   0.500000  0.382294  0.000000  0.668165
    C   C51   0.617706  0.500000  0.000000  0.668243
    C   C52   0.577897  0.873078  0.891868  0.399762
    C   C53   0.597782  0.832911  0.922185  -0.248865
    C   C54   0.126922  0.577897  0.891868  0.399747
    C   C55   0.167089  0.597782  0.922185  -0.248846
    C   C56   0.422103  0.126922  0.891868  0.399799
    C   C57   0.000000  0.500000  0.934228  0.758276
    C   C58   0.402218  0.167089  0.922185  -0.248944
    C   C59   0.873078  0.422103  0.891868  0.400049
    C   C60   0.832911  0.402218  0.922185  -0.248972
    C   C61   0.577897  0.126922  0.108132  0.399984
    C   C62   0.597782  0.167089  0.077815  -0.249033
    C   C63   0.126922  0.422103  0.108132  0.399933
    C   C64   0.167089  0.402218  0.077815  -0.249049
    C   C65   0.422103  0.873078  0.108132  0.399950
    C   C66   0.402218  0.832911  0.077815  -0.249022
    C   C67   0.873078  0.577897  0.108132  0.399969
    C   C68   0.500000  0.000000  0.934228  0.758248
    C   C69   0.832911  0.597782  0.077815  -0.249014
    C   C70   0.077897  0.373078  0.391868  0.399748
    C   C71   0.097782  0.332911  0.422185  -0.248844
    C   C72   0.626922  0.077897  0.391868  0.399727
    C   C73   0.667089  0.097782  0.422185  -0.248883
    C   C74   0.922103  0.626922  0.391868  0.399739
    C   C75   0.902218  0.667089  0.422185  -0.248887
    C   C76   0.373078  0.922103  0.391868  0.400043
    C   C77   0.332911  0.902218  0.422185  -0.249019
    C   C78   0.077897  0.626922  0.608132  0.399927
    C   C79   0.509371  0.945215  0.878365  0.574920
    C   C80   0.097782  0.667089  0.577815  -0.248985
    C   C81   0.626922  0.922103  0.608132  0.399926
    C   C82   0.667089  0.902218  0.577815  -0.249030
    C   C83   0.922103  0.373078  0.608132  0.399950
    C   C84   0.902218  0.332911  0.577815  -0.249076
    C   C85   0.373078  0.077897  0.608132  0.399952
    C   C86   0.332911  0.097782  0.577815  -0.249012
    C   C87   0.808989  0.890107  0.444016  0.285934
    C   C88   0.860806  0.848727  0.430796  -0.229246
    C   C89   0.109893  0.808989  0.444016  0.285988
    C   C90   0.054785  0.509371  0.878365  0.574953
    C   C91   0.151273  0.860806  0.430796  -0.229246
    C   C92   0.191011  0.109893  0.444016  0.286259
    C   C93   0.139194  0.151273  0.430796  -0.229050
    C   C94   0.890107  0.191011  0.444016  0.285978
    C   C95   0.848727  0.139194  0.430796  -0.229254
    C   C96   0.808989  0.109893  0.555984  0.286068
    C   C97   0.860806  0.151273  0.569204  -0.229367
    C   C98   0.109893  0.191011  0.555984  0.286094
    C   C99   0.151273  0.139194  0.569204  -0.228989
    C   C100  0.191011  0.890107  0.555984  0.286068
    C   C101  0.490629  0.054784  0.878365  0.574933
    C   C102  0.139194  0.848727  0.569204  -0.228990
    C   C103  0.890107  0.808989  0.555984  0.286020
    C   C104  0.848727  0.860806  0.569204  -0.229282
    C   C105  0.308989  0.390107  0.944016  0.285888
    C   C106  0.360806  0.348727  0.930796  -0.229224
    C   C107  0.609893  0.308989  0.944016  0.286081
    C   C108  0.651273  0.360806  0.930796  -0.229010
    C   C109  0.691011  0.609893  0.944016  0.286239
    C   C110  0.639194  0.651273  0.930796  -0.229012
    C   C111  0.390107  0.691011  0.944016  0.286159
    C   C112  0.000000  0.617620  0.500000  0.687764
    C   C113  0.945216  0.490629  0.878365  0.574962
    C   C114  0.348727  0.639194  0.930796  -0.228981
    C   C115  0.308989  0.609893  0.055984  0.286203
    C   C116  0.360806  0.651273  0.069204  -0.229075
    C   C117  0.609893  0.691011  0.055984  0.286070
    C   C118  0.651273  0.639194  0.069204  -0.228978
    C   C119  0.691011  0.390107  0.055984  0.286112
    C   C120  0.639194  0.348727  0.069204  -0.229000
    C   C121  0.390107  0.308989  0.055984  0.286001
    C   C122  0.348727  0.360806  0.069204  -0.229355
    C   C123  0.509371  0.054784  0.121635  0.574974
    C   C124  0.054785  0.490629  0.121635  0.574997
    C   C125  0.490629  0.945215  0.121635  0.574993
    C   C126  0.945216  0.509371  0.121635  0.574973
    C   C127  0.009371  0.445215  0.378365  0.574930
    C   C128  0.554785  0.009371  0.378365  0.574964
    C   C129  0.990629  0.554784  0.378365  0.574939
    C   C130  0.445216  0.990629  0.378365  0.574975
    C   C131  0.009371  0.554784  0.621635  0.574989
    C   C132  0.382380  0.000000  0.500000  0.687782
    C   C133  0.554785  0.990629  0.621635  0.574999
    C   C134  0.990629  0.445215  0.621635  0.575001
    C   C135  0.445216  0.009371  0.621635  0.574977
    C   C136  0.507490  0.945057  0.842512  -0.558138
    C   C137  0.054943  0.507490  0.842512  -0.558155
    C   C138  0.492510  0.054943  0.842512  -0.558171
    C   C139  0.945057  0.492510  0.842512  -0.558208
    C   C140  0.507490  0.054943  0.157488  -0.558217
    C   C141  0.054943  0.492510  0.157488  -0.558211
    C   C142  0.492510  0.945057  0.157488  -0.558204
    C   C143  0.000000  0.382380  0.500000  0.687751
    C   C144  0.945057  0.507490  0.157488  -0.558204
    C   C145  0.007490  0.445057  0.342512  -0.558139
    C   C146  0.554943  0.007490  0.342512  -0.558158
    C   C147  0.992510  0.554943  0.342512  -0.558164
    C   C148  0.445057  0.992510  0.342512  -0.558216
    C   C149  0.007490  0.554943  0.657488  -0.558216
    C   C150  0.554943  0.992510  0.657488  -0.558214
    C   C151  0.992510  0.445057  0.657488  -0.558209
    C   C152  0.445057  0.007490  0.657488  -0.558210
    C   C153  0.500000  0.000000  0.824341  0.262711
    C   C154  0.117620  0.500000  0.000000  0.687779
    C   C155  0.000000  0.500000  0.824341  0.262715
    C   C156  0.500000  0.000000  0.175659  0.262725
    C   C157  0.000000  0.500000  0.175659  0.262724
    C   C158  0.000000  0.500000  0.324341  0.262707
    C   C159  0.500000  0.000000  0.324341  0.262720
    C   C160  0.000000  0.500000  0.675659  0.262724
    C   C161  0.500000  0.000000  0.675659  0.262729
    C   C162  0.500000  0.000000  0.896315  -0.421066
    C   C163  0.000000  0.500000  0.896315  -0.421093
    C   C164  0.500000  0.000000  0.103685  -0.421127
    C   C165  0.500000  0.117620  0.000000  0.687807
    C   C166  0.000000  0.500000  0.103685  -0.421134
    C   C167  0.000000  0.500000  0.396315  -0.421085
    C   C168  0.500000  0.000000  0.396315  -0.421114
    C   C169  0.000000  0.500000  0.603685  -0.421145
    C   C170  0.500000  0.000000  0.603685  -0.421135
    C   C171  0.460795  0.039129  0.767904  -0.153761
    C   C172  0.960871  0.460795  0.767904  -0.153797
    C   C173  0.539205  0.960871  0.767904  -0.153765
    C   C174  0.039129  0.539205  0.767904  -0.153773
    C   C175  0.460795  0.960871  0.232096  -0.153842
    C   C176  0.882380  0.500000  0.000000  0.687823
    C   C177  0.960871  0.539205  0.232096  -0.153859
    C   C178  0.539205  0.039129  0.232096  -0.153846
    C   C179  0.039129  0.460795  0.232096  -0.153857
    C   C180  0.960795  0.539129  0.267904  -0.153766
    C   C181  0.460871  0.960795  0.267904  -0.153799
    C   C182  0.039205  0.460871  0.267904  -0.153772
    C   C183  0.539129  0.039205  0.267904  -0.153783
    C   C184  0.960795  0.460871  0.732096  -0.153843
    C   C185  0.460871  0.039205  0.732096  -0.153864
    C   C186  0.039205  0.539129  0.732096  -0.153855
    C   C187  0.500000  0.882380  0.000000  0.687797
    C   C188  0.539129  0.960795  0.732096  -0.153861
    C   C189  0.500000  0.000000  0.713876  0.106450
    C   C190  0.000000  0.500000  0.713876  0.106447
    C   C191  0.500000  0.000000  0.286124  0.106416
    C   C192  0.000000  0.500000  0.286124  0.106403
    C   C193  0.000000  0.500000  0.213876  0.106450
    C   C194  0.500000  0.000000  0.213876  0.106445
    C   C195  0.000000  0.500000  0.786124  0.106414
    C   C196  0.500000  0.000000  0.786124  0.106399
    C   C197  0.718003  0.947667  0.489747  -0.477492
    C   C198  0.500000  0.000000  0.565772  0.758311
    C   C199  0.052333  0.718003  0.489747  -0.477470
    C   C200  0.281997  0.052333  0.489747  -0.477505
    C   C201  0.947667  0.281997  0.489747  -0.477487
    C   C202  0.718003  0.052333  0.510253  -0.477516
    C   C203  0.052333  0.281997  0.510253  -0.477526
    C   C204  0.281997  0.947667  0.510253  -0.477502
    C   C205  0.947667  0.718003  0.510253  -0.477499
    C   C206  0.218003  0.447667  0.989747  -0.477479
    C   C207  0.552333  0.218003  0.989747  -0.477495
    C   C208  0.781997  0.552333  0.989747  -0.477480
    Cu  Cu1   0.500000  0.060614  0.500000  0.907503
    Cu  Cu2   0.000000  0.000000  0.533757  0.766214
    Cu  Cu3   0.500000  0.500000  0.966243  0.766233
    Cu  Cu4   0.500000  0.500000  0.033757  0.766229
    Cu  Cu5   0.939386  0.500000  0.500000  0.907490
    Cu  Cu6   0.500000  0.939386  0.500000  0.907497
    Cu  Cu7   0.060614  0.500000  0.500000  0.907505
    Cu  Cu8   0.000000  0.560614  0.000000  0.907512
    Cu  Cu9   0.439386  0.000000  0.000000  0.907498
    Cu  Cu10  0.000000  0.439386  0.000000  0.907512
    Cu  Cu11  0.560614  0.000000  0.000000  0.907508
    Cu  Cu12  0.000000  0.000000  0.466243  0.766226
    H   H1    0.510962  0.901326  0.828850  0.207537
    H   H2    0.598674  0.010962  0.328850  0.207542
    H   H3    0.916735  0.654084  0.367563  -0.043714
    H   H4    0.934904  0.706650  0.425009  0.072460
    H   H5    0.854653  0.685040  0.417442  0.037327
    H   H6    0.902260  0.639011  0.446295  0.093303
    H   H7    0.415043  0.892193  0.390874  -0.059895
    H   H8    0.345916  0.916735  0.367563  -0.043833
    H   H9    0.293350  0.934904  0.425009  0.072474
    H   H10   0.314960  0.854653  0.417442  0.037350
    H   H11   0.360989  0.902260  0.446295  0.093315
    H   H12   0.107807  0.584957  0.609126  -0.059868
    H   H13   0.989038  0.598674  0.328850  0.207540
    H   H14   0.083265  0.654084  0.632438  -0.043773
    H   H15   0.065096  0.706650  0.574991  0.072460
    H   H16   0.145347  0.685040  0.582558  0.037327
    H   H17   0.097740  0.639011  0.553705  0.093326
    H   H18   0.584957  0.892193  0.609126  -0.059873
    H   H19   0.654084  0.916735  0.632438  -0.043775
    H   H20   0.706650  0.934904  0.574991  0.072467
    H   H21   0.685040  0.854653  0.582558  0.037352
    H   H22   0.639011  0.902260  0.553705  0.093340
    H   H23   0.892193  0.415043  0.609126  -0.059876
    H   H24   0.401326  0.989038  0.328850  0.207568
    H   H25   0.916735  0.345916  0.632438  -0.043779
    H   H26   0.934904  0.293350  0.574991  0.072489
    H   H27   0.854653  0.314960  0.582558  0.037361
    H   H28   0.902260  0.360989  0.553705  0.093349
    H   H29   0.415043  0.107807  0.609126  -0.059872
    H   H30   0.345916  0.083265  0.632438  -0.043779
    H   H31   0.293350  0.065096  0.574991  0.072470
    H   H32   0.314960  0.145347  0.582558  0.037330
    H   H33   0.360989  0.097740  0.553705  0.093332
    H   H34   0.813184  0.936766  0.431980  -0.033950
    H   H35   0.010962  0.598674  0.671150  0.207574
    H   H36   0.763815  0.868938  0.436774  -0.018492
    H   H37   0.857312  0.802495  0.443379  0.084174
    H   H38   0.856609  0.843347  0.402241  0.050551
    H   H39   0.906440  0.869742  0.437134  0.052159
    H   H40   0.063234  0.813184  0.431980  -0.033964
    H   H41   0.131062  0.763815  0.436774  -0.018505
    H   H42   0.197505  0.857311  0.443379  0.084190
    H   H43   0.156653  0.856609  0.402241  0.050556
    H   H44   0.130258  0.906439  0.437134  0.052134
    H   H45   0.186816  0.063234  0.431980  -0.034046
    H   H46   0.598674  0.989038  0.671150  0.207578
    H   H47   0.236185  0.131061  0.436774  -0.018593
    H   H48   0.142689  0.197505  0.443379  0.084128
    H   H49   0.143391  0.156652  0.402241  0.050465
    H   H50   0.093560  0.130258  0.437134  0.052085
    H   H51   0.936766  0.186816  0.431980  -0.033950
    H   H52   0.868938  0.236185  0.436774  -0.018505
    H   H53   0.802495  0.142688  0.443379  0.084165
    H   H54   0.843348  0.143391  0.402241  0.050548
    H   H55   0.869742  0.093560  0.437134  0.052165
    H   H56   0.813184  0.063234  0.568020  -0.033967
    H   H57   0.989038  0.401326  0.671150  0.207575
    H   H58   0.763815  0.131061  0.563226  -0.018529
    H   H59   0.857311  0.197505  0.556621  0.084195
    H   H60   0.856609  0.156652  0.597759  0.050577
    H   H61   0.906440  0.130258  0.562866  0.052194
    H   H62   0.063234  0.186816  0.568020  -0.034023
    H   H63   0.131062  0.236185  0.563226  -0.018548
    H   H64   0.197505  0.142688  0.556621  0.084141
    H   H65   0.156653  0.143391  0.597759  0.050464
    H   H66   0.130258  0.093560  0.562866  0.052070
    H   H67   0.186816  0.936766  0.568020  -0.034012
    H   H68   0.401326  0.010962  0.671150  0.207572
    H   H69   0.236185  0.868938  0.563226  -0.018543
    H   H70   0.142688  0.802495  0.556621  0.084135
    H   H71   0.143391  0.843347  0.597759  0.050472
    H   H72   0.093560  0.869742  0.562866  0.052059
    H   H73   0.936766  0.813184  0.568020  -0.033963
    H   H74   0.868938  0.763815  0.563226  -0.018512
    H   H75   0.802495  0.857311  0.556621  0.084183
    H   H76   0.843348  0.856609  0.597759  0.050563
    H   H77   0.869742  0.906439  0.562866  0.052146
    H   H78   0.313184  0.436766  0.931980  -0.033936
    H   H79   0.428805  0.069440  0.781363  0.110101
    H   H80   0.263815  0.368938  0.936774  -0.018481
    H   H81   0.357312  0.302495  0.943379  0.084171
    H   H82   0.356609  0.343347  0.902241  0.050549
    H   H83   0.406440  0.369742  0.937134  0.052153
    H   H84   0.563234  0.313184  0.931980  -0.034017
    H   H85   0.631062  0.263814  0.936774  -0.018524
    H   H86   0.697505  0.357311  0.943379  0.084152
    H   H87   0.656653  0.356609  0.902241  0.050471
    H   H88   0.630258  0.406439  0.937134  0.052061
    H   H89   0.686816  0.563234  0.931980  -0.034036
    H   H90   0.930560  0.428805  0.781363  0.110120
    H   H91   0.736185  0.631061  0.936774  -0.018591
    H   H92   0.642689  0.697505  0.943379  0.084123
    H   H93   0.643391  0.656652  0.902241  0.050461
    H   H94   0.593561  0.630258  0.937134  0.052061
    H   H95   0.436766  0.686816  0.931980  -0.034031
    H   H96   0.368938  0.736185  0.936774  -0.018565
    H   H97   0.302495  0.642688  0.943379  0.084116
    H   H98   0.343348  0.643391  0.902241  0.050452
    H   H99   0.369742  0.593560  0.937134  0.052075
    H   H100  0.313184  0.563234  0.068020  -0.034031
    H   H101  0.571195  0.930560  0.781363  0.110100
    H   H102  0.263815  0.631061  0.063226  -0.018582
    H   H103  0.357312  0.697505  0.056621  0.084136
    H   H104  0.356609  0.656652  0.097759  0.050478
    H   H105  0.406440  0.630258  0.062866  0.052108
    H   H106  0.563234  0.686816  0.068020  -0.034015
    H   H107  0.631062  0.736185  0.063226  -0.018541
    H   H108  0.697505  0.642688  0.056621  0.084141
    H   H109  0.656653  0.643391  0.097759  0.050464
    H   H110  0.630258  0.593560  0.062866  0.052064
    H   H111  0.686816  0.436766  0.068020  -0.034029
    H   H112  0.098674  0.510962  0.828850  0.207538
    H   H113  0.069440  0.571195  0.781363  0.110102
    H   H114  0.736185  0.368938  0.063226  -0.018550
    H   H115  0.642689  0.302495  0.056621  0.084144
    H   H116  0.643391  0.343347  0.097759  0.050471
    H   H117  0.593560  0.369742  0.062866  0.052054
    H   H118  0.436766  0.313184  0.068020  -0.033943
    H   H119  0.368939  0.263814  0.063226  -0.018496
    H   H120  0.302495  0.357311  0.056621  0.084193
    H   H121  0.343348  0.356609  0.097759  0.050579
    H   H122  0.369742  0.406439  0.062866  0.052178
    H   H123  0.428805  0.930560  0.218637  0.110129
    H   H124  0.930560  0.571195  0.218637  0.110135
    H   H125  0.571195  0.069440  0.218637  0.110134
    H   H126  0.069440  0.428805  0.218637  0.110135
    H   H127  0.928805  0.569440  0.281363  0.110104
    H   H128  0.430560  0.928805  0.281363  0.110121
    H   H129  0.071195  0.430560  0.281363  0.110102
    H   H130  0.569440  0.071195  0.281363  0.110104
    H   H131  0.928805  0.430560  0.718637  0.110130
    H   H132  0.489038  0.098674  0.828850  0.207540
    H   H133  0.430560  0.071195  0.718637  0.110136
    H   H134  0.071195  0.569440  0.718637  0.110136
    H   H135  0.569440  0.928805  0.718637  0.110136
    H   H136  0.693547  0.905842  0.482376  0.196297
    H   H137  0.094158  0.693547  0.482376  0.196297
    H   H138  0.306453  0.094158  0.482376  0.196309
    H   H139  0.905842  0.306453  0.482376  0.196302
    H   H140  0.693547  0.094158  0.517624  0.196302
    H   H141  0.094158  0.306453  0.517624  0.196309
    H   H142  0.306453  0.905842  0.517624  0.196309
    H   H143  0.901326  0.489038  0.828850  0.207567
    H   H144  0.905842  0.693547  0.517624  0.196300
    H   H145  0.193547  0.405842  0.982376  0.196296
    H   H146  0.594158  0.193547  0.982376  0.196307
    H   H147  0.806453  0.594158  0.982376  0.196305
    H   H148  0.405842  0.806453  0.982376  0.196306
    H   H149  0.193547  0.594158  0.017624  0.196307
    H   H150  0.594158  0.806453  0.017624  0.196306
    H   H151  0.806453  0.405842  0.017624  0.196307
    H   H152  0.405842  0.193547  0.017624  0.196299
    H   H153  0.607807  0.915043  0.890874  -0.059841
    H   H154  0.510962  0.098674  0.171150  0.207570
    H   H155  0.583265  0.845916  0.867563  -0.043716
    H   H156  0.565096  0.793350  0.925009  0.072432
    H   H157  0.645347  0.814960  0.917442  0.037309
    H   H158  0.597740  0.860989  0.946295  0.093305
    H   H159  0.084957  0.607807  0.890874  -0.059839
    H   H160  0.154084  0.583265  0.867563  -0.043712
    H   H161  0.206650  0.565096  0.925009  0.072430
    H   H162  0.185040  0.645347  0.917442  0.037303
    H   H163  0.139011  0.597740  0.946295  0.093301
    H   H164  0.392193  0.084957  0.890874  -0.059841
    H   H165  0.098674  0.489038  0.171150  0.207577
    H   H166  0.416735  0.154084  0.867563  -0.043727
    H   H167  0.434904  0.206650  0.925009  0.072467
    H   H168  0.354653  0.185040  0.917442  0.037335
    H   H169  0.402260  0.139010  0.946295  0.093317
    H   H170  0.915043  0.392193  0.890874  -0.059897
    H   H171  0.845916  0.416735  0.867563  -0.043834
    H   H172  0.793350  0.434904  0.925009  0.072455
    H   H173  0.814960  0.354653  0.917442  0.037324
    H   H174  0.860989  0.402260  0.946295  0.093309
    H   H175  0.607807  0.084957  0.109126  -0.059881
    H   H176  0.489038  0.901326  0.171150  0.207574
    H   H177  0.583265  0.154084  0.132438  -0.043786
    H   H178  0.565096  0.206650  0.074991  0.072453
    H   H179  0.645347  0.185040  0.082558  0.037335
    H   H180  0.597740  0.139010  0.053705  0.093344
    H   H181  0.084957  0.392193  0.109126  -0.059873
    H   H182  0.154084  0.416735  0.132438  -0.043776
    H   H183  0.206650  0.434904  0.074991  0.072480
    H   H184  0.185040  0.354653  0.082558  0.037354
    H   H185  0.139011  0.402260  0.053705  0.093344
    H   H186  0.392193  0.915043  0.109126  -0.059877
    H   H187  0.901326  0.510962  0.171150  0.207570
    H   H188  0.416735  0.845916  0.132438  -0.043778
    H   H189  0.434904  0.793350  0.074991  0.072472
    H   H190  0.354653  0.814960  0.082558  0.037332
    H   H191  0.402260  0.860989  0.053705  0.093342
    H   H192  0.915043  0.607807  0.109126  -0.059877
    H   H193  0.845916  0.583265  0.132438  -0.043783
    H   H194  0.793350  0.565096  0.074991  0.072465
    H   H195  0.814960  0.645347  0.082558  0.037328
    H   H196  0.860989  0.597740  0.053705  0.093335
    H   H197  0.107807  0.415043  0.390874  -0.059840
    H   H198  0.010962  0.401326  0.328850  0.207538
    H   H199  0.083265  0.345916  0.367563  -0.043713
    H   H200  0.065096  0.293350  0.425009  0.072425
    H   H201  0.145347  0.314960  0.417442  0.037306
    H   H202  0.097740  0.360989  0.446295  0.093300
    H   H203  0.584957  0.107807  0.390874  -0.059833
    H   H204  0.654084  0.083265  0.367563  -0.043710
    H   H205  0.706650  0.065096  0.425009  0.072452
    H   H206  0.685040  0.145347  0.417442  0.037327
    H   H207  0.639011  0.097740  0.446295  0.093306
    H   H208  0.892193  0.584957  0.390874  -0.059831
    O   O1    0.588445  0.051050  0.510026  -0.601252
    O   O2    0.448950  0.088445  0.010026  -0.601261
    O   O3    0.911555  0.448950  0.010026  -0.601264
    O   O4    0.551050  0.911555  0.010026  -0.601263
    O   O5    0.088445  0.448950  0.989974  -0.601268
    O   O6    0.448950  0.911555  0.989974  -0.601269
    O   O7    0.911555  0.551050  0.989974  -0.601273
    O   O8    0.551050  0.088445  0.989974  -0.601276
    O   O9    0.482031  0.051075  0.549546  -0.551543
    O   O10   0.948925  0.482031  0.549546  -0.551538
    O   O11   0.517969  0.948925  0.549546  -0.551539
    O   O12   0.948950  0.588445  0.510026  -0.601244
    O   O13   0.051075  0.517969  0.549546  -0.551543
    O   O14   0.482031  0.948925  0.450454  -0.551529
    O   O15   0.948925  0.517969  0.450454  -0.551509
    O   O16   0.517969  0.051075  0.450454  -0.551522
    O   O17   0.051075  0.482031  0.450454  -0.551523
    O   O18   0.982031  0.551075  0.049546  -0.551546
    O   O19   0.448925  0.982031  0.049546  -0.551540
    O   O20   0.017969  0.448925  0.049546  -0.551547
    O   O21   0.551075  0.017969  0.049546  -0.551533
    O   O22   0.982031  0.448925  0.950454  -0.551544
    O   O23   0.411555  0.948950  0.510026  -0.601253
    O   O24   0.448925  0.017969  0.950454  -0.551509
    O   O25   0.017969  0.551075  0.950454  -0.551533
    O   O26   0.551075  0.982031  0.950454  -0.551525
    O   O27   0.981517  0.088570  0.471596  -0.475191
    O   O28   0.911430  0.981517  0.471596  -0.475197
    O   O29   0.018483  0.911430  0.471596  -0.475182
    O   O30   0.088570  0.018483  0.471596  -0.475226
    O   O31   0.981517  0.911430  0.528404  -0.475157
    O   O32   0.911430  0.018483  0.528404  -0.475215
    O   O33   0.018483  0.088570  0.528404  -0.475203
    O   O34   0.051050  0.411555  0.510026  -0.601258
    O   O35   0.088570  0.981517  0.528404  -0.475186
    O   O36   0.481517  0.588570  0.971596  -0.475208
    O   O37   0.411430  0.481517  0.971596  -0.475206
    O   O38   0.518483  0.411430  0.971596  -0.475195
    O   O39   0.588570  0.518483  0.971596  -0.475213
    O   O40   0.481517  0.411430  0.028404  -0.475186
    O   O41   0.411430  0.518483  0.028404  -0.475240
    O   O42   0.518483  0.588570  0.028404  -0.475198
    O   O43   0.588570  0.481517  0.028404  -0.475184
    O   O44   0.515743  0.890384  0.896090  -0.455278
    O   O45   0.588445  0.948950  0.489974  -0.601248
    O   O46   0.109616  0.515743  0.896090  -0.455288
    O   O47   0.484257  0.109616  0.896090  -0.455318
    O   O48   0.890384  0.484257  0.896090  -0.455369
    O   O49   0.515743  0.109616  0.103910  -0.455358
    O   O50   0.109616  0.484257  0.103910  -0.455328
    O   O51   0.484257  0.890384  0.103910  -0.455337
    O   O52   0.890384  0.515743  0.103910  -0.455366
    O   O53   0.015743  0.390384  0.396090  -0.455281
    O   O54   0.609616  0.015743  0.396090  -0.455287
    O   O55   0.984257  0.609616  0.396090  -0.455314
    O   O56   0.948950  0.411555  0.489974  -0.601257
    O   O57   0.390384  0.984257  0.396090  -0.455368
    O   O58   0.015743  0.609616  0.603910  -0.455365
    O   O59   0.609616  0.984257  0.603910  -0.455328
    O   O60   0.984257  0.390384  0.603910  -0.455336
    O   O61   0.390384  0.015743  0.603910  -0.455365
    O   O62   0.813444  0.894928  0.480128  -0.344684
    O   O63   0.105072  0.813444  0.480128  -0.344691
    O   O64   0.186556  0.105072  0.480128  -0.344847
    O   O65   0.894928  0.186556  0.480128  -0.344692
    O   O66   0.813444  0.105072  0.519872  -0.344715
    O   O67   0.411555  0.051050  0.489974  -0.601269
    O   O68   0.105072  0.186556  0.519872  -0.344799
    O   O69   0.186556  0.894928  0.519872  -0.344794
    O   O70   0.894928  0.813444  0.519872  -0.344690
    O   O71   0.313444  0.394928  0.980128  -0.344669
    O   O72   0.605072  0.313444  0.980128  -0.344801
    O   O73   0.686556  0.605072  0.980128  -0.344843
    O   O74   0.394928  0.686556  0.980128  -0.344826
    O   O75   0.313444  0.605072  0.019872  -0.344830
    O   O76   0.605072  0.686556  0.019872  -0.344796
    O   O77   0.686556  0.394928  0.019872  -0.344764
    O   O78   0.051050  0.588445  0.489974  -0.601263
    O   O79   0.394928  0.313444  0.019872  -0.344699
    O   O80   0.088445  0.551050  0.010026  -0.601264
