# Generated by REPEAT Assigner based on pymatgen
data_DB0-m2_o1_o2_f0_pcu.sym.4_sqe
_audit_creation_date              2022-05-24
_audit_creation_method            REPEAT_Assigner
_cell_length_a                    11.010588
_cell_length_b                    9.452912
_cell_length_c                    15.306869
_cell_angle_alpha                 90.000000
_cell_angle_beta                  90.005971
_cell_angle_gamma                 90.000000
_cell_volume                      1593.171341
_symmetry_space_group_name_H-M    P1
_symmetry_Int_Tables_number       1
loop_
    _symmetry_equiv_pos_site_id
    _symmetry_equiv_pos_as_xyz
    1  x,y,z
loop_
    _atom_site_type_symbol
    _atom_site_label
    _atom_site_fract_x
    _atom_site_fract_y
    _atom_site_fract_z
    _atom_type_partial_charge
    O   O1    0.323436  0.619824  0.502143  -0.488581
    O   O2    0.676792  0.380305  0.497303  -0.502353
    O   O3    0.676424  0.621241  0.505283  -0.455722
    O   O4    0.323730  0.378771  0.495890  -0.463604
    N   N1    0.499407  0.853088  0.501925  -0.259692
    N   N2    0.500826  0.146793  0.498654  -0.394689
    C   C1    0.264882  0.499310  0.500136  0.582805
    C   C2    0.735306  0.500930  0.500057  0.577899
    O   O5    0.507061  0.621699  0.373827  -0.379250
    O   O6    0.494351  0.378159  0.626575  -0.467454
    O   O7    0.501050  0.619345  0.627705  -0.321333
    O   O8    0.497985  0.380498  0.372591  -0.407992
    C   C3    0.505597  0.501483  0.331098  0.432797
    C   C4    0.494356  0.498569  0.669227  0.440332
    Cu  Cu1   0.499886  0.640990  0.500820  0.583232
    Cu  Cu2   0.500339  0.358942  0.499506  0.776117
    C   C5    0.425952  0.071727  0.446075  0.317413
    C   C6    0.572771  0.927976  0.555607  0.234080
    C   C7    0.574256  0.073832  0.553339  0.341537
    C   C8    0.427979  0.925881  0.445877  0.260742
    C   C9    0.062386  0.374519  0.501352  0.035836
    C   C10   0.937647  0.626580  0.499968  0.031278
    C   C11   0.937421  0.374964  0.496111  0.065292
    C   C12   0.062928  0.626201  0.502211  0.051111
    C   C13   0.521589  0.626323  0.095506  -0.173259
    C   C14   0.511696  0.378138  0.904527  -0.222961
    C   C15   0.473639  0.624085  0.904203  -0.154286
    C   C16   0.491041  0.378998  0.096174  -0.171268
    H   H1    0.538168  0.725566  0.062996  0.115081
    H   H2    0.530927  0.278550  0.935516  0.118635
    H   H3    0.453719  0.722865  0.936277  0.109905
    H   H4    0.474984  0.278331  0.065591  0.111443
    C   C17   0.522656  0.627734  0.185869  0.047026
    C   C18   0.501861  0.374482  0.814975  0.144004
    C   C19   0.472485  0.624370  0.813875  0.029212
    C   C20   0.501074  0.376663  0.185693  0.085542
    C   C21   0.509913  0.502174  0.233493  0.044012
    C   C22   0.489379  0.498975  0.766770  0.018246
    C   C23   0.502058  0.502908  0.048843  0.099893
    C   C24   0.497029  0.502140  0.951358  0.121520
    C   C25   0.871202  0.500888  0.498270  -0.031363
    C   C26   0.128984  0.499989  0.501704  -0.032351
    Cl  Cl1   0.323980  0.152719  0.373908  -0.024054
    Cl  Cl2   0.668156  0.846458  0.632237  -0.037811
    Cl  Cl3   0.677938  0.158354  0.622608  -0.011331
    Cl  Cl4   0.332017  0.840810  0.371130  -0.026939
    Cl  Cl5   0.547654  0.793860  0.234114  -0.102630
    Cl  Cl6   0.500363  0.204359  0.769672  -0.126192
    Cl  Cl7   0.440171  0.788257  0.764888  -0.099948
    Cl  Cl8   0.509036  0.206704  0.231200  -0.115723
    Cl  Cl9   0.127324  0.205818  0.511414  -0.079915
    Cl  Cl10  0.871830  0.795599  0.495415  -0.074197
    Cl  Cl11  0.872347  0.206773  0.483318  -0.078518
    Cl  Cl12  0.128946  0.794989  0.508615  -0.071573
