# Generated by REPEAT Assigner based on pymatgen
data_DB0-m2_o1_o3_f0_nbo.sym.45
_audit_creation_date              2022-05-24
_audit_creation_method            REPEAT_Assigner
_cell_length_a                    21.631196
_cell_length_b                    21.631196
_cell_length_c                    38.864044
_cell_angle_alpha                 90.000000
_cell_angle_beta                  90.000000
_cell_angle_gamma                 90.000000
_cell_volume                      18184.822567
_symmetry_space_group_name_H-M    P1
_symmetry_Int_Tables_number       1
loop_
    _symmetry_equiv_pos_site_id
    _symmetry_equiv_pos_as_xyz
    1  x,y,z
loop_
    _atom_site_type_symbol
    _atom_site_label
    _atom_site_fract_x
    _atom_site_fract_y
    _atom_site_fract_z
    _atom_type_partial_charge
    O   O1    0.588186  0.050980  0.490572  -0.427949
    O   O2    0.949020  0.588186  0.490572  -0.427954
    O   O3    0.411814  0.949020  0.490572  -0.427949
    O   O4    0.050980  0.411814  0.490572  -0.427964
    O   O5    0.588186  0.949020  0.509428  -0.427945
    O   O6    0.949020  0.411814  0.509428  -0.427966
    O   O7    0.411814  0.050980  0.509428  -0.427958
    O   O8    0.050980  0.588186  0.509428  -0.427957
    O   O9    0.088186  0.550980  0.990572  -0.427938
    O   O10   0.449020  0.088186  0.990572  -0.427925
    O   O11   0.911814  0.449020  0.990572  -0.427933
    O   O12   0.550980  0.911814  0.990572  -0.427931
    O   O13   0.088186  0.449020  0.009428  -0.427935
    O   O14   0.449020  0.911814  0.009428  -0.427930
    O   O15   0.911814  0.550980  0.009428  -0.427935
    O   O16   0.550980  0.088186  0.009428  -0.427928
    C   C1    0.617299  0.000000  0.500000  0.217544
    C   C2    0.000000  0.617299  0.500000  0.217567
    C   C3    0.382701  0.000000  0.500000  0.217571
    C   C4    0.000000  0.382701  0.500000  0.217593
    C   C5    0.117299  0.500000  0.000000  0.217510
    C   C6    0.500000  0.117299  0.000000  0.217470
    C   C7    0.882701  0.500000  0.000000  0.217510
    C   C8    0.500000  0.882701  0.000000  0.217493
    O   O17   0.517234  0.050538  0.549129  -0.382952
    O   O18   0.949461  0.517234  0.549129  -0.382939
    O   O19   0.482766  0.949461  0.549129  -0.382952
    O   O20   0.050539  0.482766  0.549129  -0.382941
    O   O21   0.517234  0.949461  0.450871  -0.382974
    O   O22   0.949461  0.482766  0.450871  -0.382970
    O   O23   0.482766  0.050538  0.450871  -0.382979
    O   O24   0.050539  0.517234  0.450871  -0.382966
    O   O25   0.017234  0.550539  0.049129  -0.382955
    O   O26   0.449462  0.017234  0.049129  -0.382951
    O   O27   0.982766  0.449461  0.049129  -0.382962
    O   O28   0.550539  0.982766  0.049129  -0.382949
    O   O29   0.017234  0.449461  0.950871  -0.382964
    O   O30   0.449462  0.982766  0.950871  -0.382955
    O   O31   0.982766  0.550539  0.950871  -0.382957
    O   O32   0.550539  0.017234  0.950871  -0.382956
    C   C9    0.500000  0.000000  0.565714  0.418437
    C   C10   0.000000  0.500000  0.565714  0.418434
    C   C11   0.500000  0.000000  0.434286  0.418519
    C   C12   0.000000  0.500000  0.434286  0.418529
    C   C13   0.000000  0.500000  0.065714  0.418428
    C   C14   0.500000  0.000000  0.065714  0.418431
    C   C15   0.000000  0.500000  0.934286  0.418446
    C   C16   0.500000  0.000000  0.934286  0.418461
    Cu  Cu1   0.500000  0.060248  0.500000  0.863898
    Cu  Cu2   0.939752  0.500000  0.500000  0.863892
    Cu  Cu3   0.500000  0.939752  0.500000  0.863896
    Cu  Cu4   0.060248  0.500000  0.500000  0.863894
    Cu  Cu5   0.000000  0.560248  0.000000  0.863901
    Cu  Cu6   0.439752  0.000000  0.000000  0.863886
    Cu  Cu7   0.000000  0.439752  0.000000  0.863901
    Cu  Cu8   0.560248  0.000000  0.000000  0.863894
    C   C17   0.555390  0.991340  0.877176  -0.055805
    C   C18   0.008660  0.555390  0.877176  -0.055828
    C   C19   0.444610  0.008660  0.877176  -0.055806
    C   C20   0.991340  0.444610  0.877176  -0.055832
    C   C21   0.555390  0.008660  0.122824  -0.055809
    C   C22   0.008660  0.444610  0.122824  -0.055823
    C   C23   0.444610  0.991340  0.122824  -0.055804
    C   C24   0.991340  0.555390  0.122824  -0.055830
    C   C25   0.055390  0.491340  0.377176  -0.055759
    C   C26   0.508660  0.055390  0.377176  -0.055776
    C   C27   0.944610  0.508660  0.377176  -0.055766
    C   C28   0.491340  0.944610  0.377176  -0.055785
    C   C29   0.055390  0.508660  0.622824  -0.055797
    C   C30   0.508660  0.944610  0.622824  -0.055811
    C   C31   0.944610  0.491340  0.622824  -0.055804
    C   C32   0.491340  0.055390  0.622824  -0.055818
    C   C33   0.554335  0.993354  0.841535  -0.143765
    C   C34   0.006646  0.554335  0.841535  -0.143742
    C   C35   0.445665  0.006646  0.841535  -0.143757
    C   C36   0.993354  0.445665  0.841535  -0.143736
    C   C37   0.554335  0.006646  0.158465  -0.143772
    C   C38   0.006646  0.445665  0.158465  -0.143756
    C   C39   0.445665  0.993354  0.158465  -0.143764
    C   C40   0.993354  0.554335  0.158465  -0.143757
    C   C41   0.054335  0.493354  0.341535  -0.143758
    C   C42   0.506646  0.054335  0.341535  -0.143746
    C   C43   0.945665  0.506646  0.341535  -0.143743
    C   C44   0.493354  0.945665  0.341535  -0.143742
    C   C45   0.054335  0.506646  0.658465  -0.143731
    C   C46   0.506646  0.945665  0.658465  -0.143726
    C   C47   0.945665  0.493354  0.658465  -0.143723
    C   C48   0.493354  0.054335  0.658465  -0.143727
    H   H1    0.596637  0.990987  0.826945  0.138720
    H   H2    0.009013  0.596637  0.826945  0.138712
    H   H3    0.403363  0.009013  0.826945  0.138715
    H   H4    0.990987  0.403363  0.826945  0.138710
    H   H5    0.596637  0.009013  0.173055  0.138725
    H   H6    0.009013  0.403363  0.173055  0.138717
    H   H7    0.403363  0.990987  0.173055  0.138719
    H   H8    0.990987  0.596637  0.173055  0.138720
    H   H9    0.096637  0.490987  0.326945  0.138713
    H   H10   0.509013  0.096637  0.326945  0.138710
    H   H11   0.903363  0.509013  0.326945  0.138707
    H   H12   0.490987  0.903363  0.326945  0.138712
    H   H13   0.096637  0.509013  0.673055  0.138706
    H   H14   0.509013  0.903363  0.673055  0.138707
    H   H15   0.903363  0.490987  0.673055  0.138704
    H   H16   0.490987  0.096637  0.673055  0.138710
    C   C49   0.500000  0.000000  0.823691  0.061945
    C   C50   0.000000  0.500000  0.823691  0.061926
    C   C51   0.500000  0.000000  0.176309  0.061947
    C   C52   0.000000  0.500000  0.176309  0.061941
    C   C53   0.000000  0.500000  0.323691  0.061903
    C   C54   0.500000  0.000000  0.323691  0.061902
    C   C55   0.000000  0.500000  0.676309  0.061890
    C   C56   0.500000  0.000000  0.676309  0.061897
    C   C57   0.500000  0.000000  0.895843  0.080500
    C   C58   0.000000  0.500000  0.895843  0.080534
    C   C59   0.500000  0.000000  0.104157  0.080521
    C   C60   0.000000  0.500000  0.104157  0.080551
    C   C61   0.000000  0.500000  0.395843  0.080442
    C   C62   0.500000  0.000000  0.395843  0.080467
    C   C63   0.000000  0.500000  0.604157  0.080486
    C   C64   0.500000  0.000000  0.604157  0.080505
    C   C65   0.461193  0.039069  0.767729  -0.156456
    C   C66   0.960931  0.461193  0.767729  -0.156453
    C   C67   0.538807  0.960931  0.767729  -0.156451
    C   C68   0.039069  0.538807  0.767729  -0.156458
    C   C69   0.461193  0.960931  0.232271  -0.156439
    C   C70   0.960931  0.538807  0.232271  -0.156434
    C   C71   0.538807  0.039069  0.232271  -0.156436
    C   C72   0.039069  0.461193  0.232271  -0.156436
    C   C73   0.961193  0.539069  0.267729  -0.156468
    C   C74   0.460931  0.961193  0.267729  -0.156456
    C   C75   0.038807  0.460931  0.267729  -0.156465
    C   C76   0.539069  0.038807  0.267729  -0.156464
    C   C77   0.961193  0.460931  0.732271  -0.156457
    C   C78   0.460931  0.038807  0.732271  -0.156446
    C   C79   0.038807  0.539069  0.732271  -0.156454
    C   C80   0.539069  0.961193  0.732271  -0.156446
    H   H17   0.431145  0.070999  0.781037  0.132615
    H   H18   0.929001  0.431145  0.781037  0.132615
    H   H19   0.568855  0.929001  0.781037  0.132611
    H   H20   0.070999  0.568855  0.781037  0.132618
    H   H21   0.431145  0.929001  0.218963  0.132610
    H   H22   0.929001  0.568855  0.218963  0.132609
    H   H23   0.568855  0.070999  0.218963  0.132608
    H   H24   0.070999  0.431145  0.218963  0.132613
    H   H25   0.931145  0.570999  0.281037  0.132622
    H   H26   0.429001  0.931145  0.281037  0.132613
    H   H27   0.068855  0.429001  0.281037  0.132621
    H   H28   0.570999  0.068855  0.281037  0.132621
    H   H29   0.931145  0.429001  0.718963  0.132619
    H   H30   0.429001  0.068855  0.718963  0.132613
    H   H31   0.068855  0.570999  0.718963  0.132618
    H   H32   0.570999  0.931145  0.718963  0.132615
    C   C81   0.500000  0.000000  0.714196  0.111771
    C   C82   0.000000  0.500000  0.714196  0.111784
    C   C83   0.500000  0.000000  0.285804  0.111779
    C   C84   0.000000  0.500000  0.285804  0.111784
    C   C85   0.000000  0.500000  0.214196  0.111732
    C   C86   0.500000  0.000000  0.214196  0.111734
    C   C87   0.000000  0.500000  0.785804  0.111756
    C   C88   0.500000  0.000000  0.785804  0.111747
    C   C89   0.717475  0.979294  0.471188  0.008446
    C   C90   0.020706  0.717475  0.471188  0.008454
    C   C91   0.282525  0.020706  0.471188  0.008459
    C   C92   0.979294  0.282525  0.471188  0.008454
    C   C93   0.717475  0.020706  0.528812  0.008433
    C   C94   0.020706  0.282525  0.528812  0.008441
    C   C95   0.282525  0.979294  0.528812  0.008456
    C   C96   0.979294  0.717475  0.528812  0.008439
    C   C97   0.217475  0.479294  0.971188  0.008416
    C   C98   0.520706  0.217475  0.971188  0.008413
    C   C99   0.782525  0.520706  0.971188  0.008418
    C   C100  0.479295  0.782525  0.971188  0.008411
    C   C101  0.217475  0.520706  0.028812  0.008412
    C   C102  0.520706  0.782525  0.028812  0.008407
    C   C103  0.782525  0.479294  0.028812  0.008427
    C   C104  0.479295  0.217475  0.028812  0.008413
    C   C105  0.781251  0.969751  0.473859  -0.181632
    C   C106  0.030249  0.781251  0.473859  -0.181616
    C   C107  0.218749  0.030249  0.473859  -0.181637
    C   C108  0.969751  0.218749  0.473859  -0.181629
    C   C109  0.781251  0.030249  0.526141  -0.181598
    C   C110  0.030249  0.218749  0.526141  -0.181590
    C   C111  0.218749  0.969751  0.526141  -0.181603
    C   C112  0.969751  0.781251  0.526141  -0.181583
    C   C113  0.281251  0.469751  0.973859  -0.181622
    C   C114  0.530249  0.281251  0.973859  -0.181612
    C   C115  0.718749  0.530249  0.973859  -0.181606
    C   C116  0.469751  0.718749  0.973859  -0.181625
    C   C117  0.281251  0.530249  0.026141  -0.181636
    C   C118  0.530249  0.718749  0.026141  -0.181632
    C   C119  0.718749  0.469751  0.026141  -0.181617
    C   C120  0.469751  0.281251  0.026141  -0.181632
    C   C121  0.813744  0.000000  0.500000  0.122534
    C   C122  0.000000  0.813744  0.500000  0.122502
    C   C123  0.186256  0.000000  0.500000  0.122534
    C   C124  0.000000  0.186256  0.500000  0.122525
    C   C125  0.313744  0.500000  0.000000  0.122554
    C   C126  0.500000  0.313744  0.000000  0.122534
    C   C127  0.686256  0.500000  0.000000  0.122522
    C   C128  0.500000  0.686256  0.000000  0.122555
    C   C129  0.685374  0.000000  0.500000  0.141147
    C   C130  0.000000  0.685374  0.500000  0.141130
    C   C131  0.314626  0.000000  0.500000  0.141122
    C   C132  0.000000  0.314626  0.500000  0.141125
    C   C133  0.185374  0.500000  0.000000  0.141169
    C   C134  0.500000  0.185374  0.000000  0.141182
    C   C135  0.814626  0.500000  0.000000  0.141158
    C   C136  0.500000  0.814626  0.000000  0.141177
    O   O33   0.015395  0.088713  0.471457  -0.576465
    O   O34   0.911287  0.015395  0.471457  -0.576462
    O   O35   0.984605  0.911287  0.471457  -0.576465
    O   O36   0.088713  0.984605  0.471457  -0.576462
    O   O37   0.015395  0.911287  0.528543  -0.576494
    O   O38   0.911287  0.984605  0.528543  -0.576488
    O   O39   0.984605  0.088713  0.528543  -0.576491
    O   O40   0.088713  0.015395  0.528543  -0.576489
    O   O41   0.515395  0.588713  0.971457  -0.576431
    O   O42   0.411287  0.515395  0.971457  -0.576435
    O   O43   0.484605  0.411287  0.971457  -0.576440
    O   O44   0.588713  0.484605  0.971457  -0.576435
    O   O45   0.515395  0.411287  0.028543  -0.576424
    O   O46   0.411287  0.484605  0.028543  -0.576424
    O   O47   0.484605  0.588713  0.028543  -0.576416
    O   O48   0.588713  0.515395  0.028543  -0.576419
    C   C137  0.000000  0.117959  0.500000  0.704708
    C   C138  0.882041  0.000000  0.500000  0.704705
    C   C139  0.000000  0.882041  0.500000  0.704725
    C   C140  0.117959  0.000000  0.500000  0.704695
    C   C141  0.500000  0.617959  0.000000  0.704596
    C   C142  0.382041  0.500000  0.000000  0.704616
    C   C143  0.500000  0.382041  0.000000  0.704632
    C   C144  0.617959  0.500000  0.000000  0.704617
    Cu  Cu9   0.000000  0.000000  0.466310  0.988828
    Cu  Cu10  0.000000  0.000000  0.533690  0.988878
    Cu  Cu11  0.500000  0.500000  0.966310  0.988812
    Cu  Cu12  0.500000  0.500000  0.033690  0.988797
    C   C145  0.617332  0.978952  0.893769  0.525681
    F   F1    0.659872  0.959048  0.869669  -0.187656
    F   F2    0.612452  0.932919  0.918259  -0.178274
    F   F3    0.639973  0.032570  0.908484  -0.184915
    C   C146  0.021048  0.617332  0.893769  0.525680
    F   F4    0.040953  0.659871  0.869669  -0.187649
    F   F5    0.067081  0.612452  0.918259  -0.178274
    F   F6    0.967430  0.639973  0.908484  -0.184910
    C   C147  0.382668  0.021048  0.893769  0.525683
    F   F7    0.340129  0.040953  0.869669  -0.187654
    F   F8    0.387548  0.067081  0.918259  -0.178274
    F   F9    0.360027  0.967430  0.908484  -0.184916
    C   C148  0.978953  0.382668  0.893769  0.525670
    F   F10   0.959048  0.340129  0.869669  -0.187647
    F   F11   0.932919  0.387548  0.918259  -0.178275
    F   F12   0.032571  0.360027  0.908484  -0.184901
    C   C149  0.617332  0.021048  0.106231  0.525661
    F   F13   0.659872  0.040953  0.130331  -0.187649
    F   F14   0.612452  0.067081  0.081741  -0.178278
    F   F15   0.639973  0.967430  0.091516  -0.184905
    C   C150  0.021048  0.382668  0.106231  0.525644
    F   F16   0.040953  0.340129  0.130331  -0.187633
    F   F17   0.067081  0.387548  0.081741  -0.178268
    F   F18   0.967430  0.360027  0.091516  -0.184898
    C   C151  0.382668  0.978952  0.106231  0.525660
    F   F19   0.340129  0.959047  0.130331  -0.187642
    F   F20   0.387548  0.932919  0.081741  -0.178272
    F   F21   0.360027  0.032570  0.091516  -0.184910
    C   C152  0.978953  0.617332  0.106231  0.525640
    F   F22   0.959048  0.659871  0.130331  -0.187629
    F   F23   0.932919  0.612452  0.081741  -0.178280
    F   F24   0.032571  0.639973  0.091516  -0.184891
    C   C153  0.117332  0.478952  0.393769  0.525584
    F   F25   0.159871  0.459047  0.369669  -0.187618
    F   F26   0.112452  0.432919  0.418259  -0.178257
    F   F27   0.139973  0.532570  0.408484  -0.184895
    C   C154  0.521047  0.117332  0.393769  0.525590
    F   F28   0.540952  0.159871  0.369669  -0.187618
    F   F29   0.567081  0.112452  0.418259  -0.178262
    F   F30   0.467429  0.139973  0.408484  -0.184887
    C   C155  0.882668  0.521047  0.393769  0.525575
    F   F31   0.840129  0.540952  0.369669  -0.187613
    F   F32   0.887548  0.567081  0.418259  -0.178260
    F   F33   0.860027  0.467429  0.408484  -0.184887
    C   C156  0.478952  0.882668  0.393769  0.525592
    F   F34   0.459047  0.840129  0.369669  -0.187620
    F   F35   0.432919  0.887548  0.418259  -0.178255
    F   F36   0.532570  0.860027  0.408484  -0.184890
    C   C157  0.117332  0.521047  0.606231  0.525645
    F   F37   0.159871  0.540953  0.630331  -0.187646
    F   F38   0.112452  0.567081  0.581741  -0.178273
    F   F39   0.139973  0.467429  0.591516  -0.184906
    C   C158  0.521047  0.882668  0.606231  0.525645
    F   F40   0.540952  0.840129  0.630331  -0.187641
    F   F41   0.567081  0.887548  0.581741  -0.178273
    F   F42   0.467429  0.860027  0.591516  -0.184901
    C   C159  0.882668  0.478952  0.606231  0.525649
    F   F43   0.840129  0.459047  0.630331  -0.187644
    F   F44   0.887548  0.432919  0.581741  -0.178266
    F   F45   0.860027  0.532570  0.591516  -0.184912
    C   C160  0.478952  0.117332  0.606231  0.525657
    F   F46   0.459047  0.159871  0.630331  -0.187645
    F   F47   0.432919  0.112452  0.581741  -0.178264
    F   F48   0.532570  0.139973  0.591516  -0.184909
    C   C161  0.682194  0.968038  0.438136  0.480276
    F   F49   0.720737  0.965537  0.409851  -0.172725
    F   F50   0.642150  0.016316  0.431935  -0.154699
    F   F51   0.649097  0.913544  0.440570  -0.135586
    C   C162  0.031962  0.682194  0.438136  0.480253
    F   F52   0.034463  0.720737  0.409851  -0.172719
    F   F53   0.983684  0.642150  0.431935  -0.154694
    F   F54   0.086456  0.649097  0.440570  -0.135581
    C   C163  0.317806  0.031962  0.438136  0.480258
    F   F55   0.279263  0.034463  0.409851  -0.172722
    F   F56   0.357850  0.983684  0.431935  -0.154698
    F   F57   0.350903  0.086456  0.440570  -0.135579
    C   C164  0.968038  0.317806  0.438136  0.480256
    F   F58   0.965537  0.279263  0.409851  -0.172718
    F   F59   0.016316  0.357850  0.431935  -0.154700
    F   F60   0.913544  0.350903  0.440570  -0.135581
    C   C165  0.682194  0.031962  0.561864  0.480237
    F   F61   0.720737  0.034463  0.590149  -0.172722
    F   F62   0.642150  0.983684  0.568065  -0.154670
    F   F63   0.649097  0.086456  0.559430  -0.135570
    C   C166  0.031962  0.317806  0.561864  0.480223
    F   F64   0.034463  0.279263  0.590149  -0.172720
    F   F65   0.983684  0.357850  0.568065  -0.154668
    F   F66   0.086456  0.350903  0.559430  -0.135569
    C   C167  0.317806  0.968038  0.561864  0.480212
    F   F67   0.279263  0.965537  0.590149  -0.172716
    F   F68   0.357850  0.016316  0.568065  -0.154667
    F   F69   0.350903  0.913544  0.559430  -0.135567
    C   C168  0.968038  0.682194  0.561864  0.480218
    F   F70   0.965537  0.720737  0.590149  -0.172718
    F   F71   0.016316  0.642150  0.568065  -0.154665
    F   F72   0.913544  0.649097  0.559430  -0.135566
    C   C169  0.182194  0.468038  0.938136  0.480316
    F   F73   0.220737  0.465537  0.909851  -0.172738
    F   F74   0.142150  0.516316  0.931935  -0.154705
    F   F75   0.149097  0.413544  0.940570  -0.135582
    C   C170  0.531963  0.182194  0.938136  0.480324
    F   F76   0.534463  0.220737  0.909851  -0.172742
    F   F77   0.483684  0.142150  0.931935  -0.154712
    F   F78   0.586457  0.149097  0.940570  -0.135576
    C   C171  0.817806  0.531962  0.938136  0.480308
    F   F79   0.779263  0.534463  0.909851  -0.172737
    F   F80   0.857850  0.483684  0.931935  -0.154701
    F   F81   0.850903  0.586456  0.940570  -0.135578
    C   C172  0.468038  0.817806  0.938136  0.480333
    F   F82   0.465537  0.779263  0.909851  -0.172746
    F   F83   0.516316  0.857850  0.931935  -0.154709
    F   F84   0.413544  0.850903  0.940570  -0.135580
    C   C173  0.182194  0.531962  0.061864  0.480342
    F   F85   0.220737  0.534463  0.090149  -0.172738
    F   F86   0.142150  0.483684  0.068065  -0.154720
    F   F87   0.149097  0.586456  0.059430  -0.135593
    C   C174  0.531962  0.817806  0.061864  0.480362
    F   F88   0.534463  0.779263  0.090149  -0.172750
    F   F89   0.483684  0.857850  0.068065  -0.154718
    F   F90   0.586456  0.850903  0.059430  -0.135594
    C   C175  0.817806  0.468038  0.061864  0.480274
    F   F91   0.779263  0.465537  0.090149  -0.172730
    F   F92   0.857850  0.516316  0.068065  -0.154682
    F   F93   0.850903  0.413544  0.059430  -0.135574
    C   C176  0.468038  0.182194  0.061864  0.480312
    F   F94   0.465537  0.220737  0.090149  -0.172744
    F   F95   0.516316  0.142150  0.068065  -0.154692
    F   F96   0.413544  0.149097  0.059430  -0.135579
    C   C177  0.813888  0.923363  0.451007  0.621054
    F   F97   0.773336  0.878250  0.439827  -0.190932
    F   F98   0.859389  0.892518  0.468891  -0.212025
    F   F99   0.840015  0.952878  0.422988  -0.173410
    C   C178  0.076637  0.813888  0.451007  0.621037
    F   F100  0.121750  0.773336  0.439827  -0.190929
    F   F101  0.107482  0.859389  0.468891  -0.212023
    F   F102  0.047122  0.840015  0.422988  -0.173407
    C   C179  0.186112  0.076637  0.451007  0.621057
    F   F103  0.226664  0.121750  0.439827  -0.190931
    F   F104  0.140611  0.107482  0.468891  -0.212030
    F   F105  0.159985  0.047122  0.422988  -0.173408
    C   C180  0.923363  0.186112  0.451007  0.621051
    F   F106  0.878250  0.226664  0.439827  -0.190932
    F   F107  0.892518  0.140611  0.468891  -0.212029
    F   F108  0.952878  0.159985  0.422988  -0.173408
    C   C181  0.813888  0.076637  0.548993  0.621019
    F   F109  0.773336  0.121750  0.560173  -0.190929
    F   F110  0.859389  0.107482  0.531109  -0.212012
    F   F111  0.840015  0.047122  0.577012  -0.173392
    C   C182  0.076637  0.186112  0.548993  0.621003
    F   F112  0.121750  0.226664  0.560173  -0.190925
    F   F113  0.107482  0.140611  0.531109  -0.212008
    F   F114  0.047122  0.159985  0.577012  -0.173389
    C   C183  0.186112  0.923363  0.548993  0.621000
    F   F115  0.226664  0.878250  0.560173  -0.190921
    F   F116  0.140611  0.892518  0.531109  -0.212006
    F   F117  0.159985  0.952878  0.577012  -0.173386
    C   C184  0.923363  0.813888  0.548993  0.620998
    F   F118  0.878250  0.773336  0.560173  -0.190923
    F   F119  0.892518  0.859389  0.531109  -0.212009
    F   F120  0.952878  0.840015  0.577012  -0.173386
    C   C185  0.313888  0.423363  0.951007  0.621111
    F   F121  0.273336  0.378250  0.939827  -0.190967
    F   F122  0.359389  0.392518  0.968891  -0.212030
    F   F123  0.340015  0.452878  0.922988  -0.173421
    C   C186  0.576637  0.313888  0.951007  0.621113
    F   F124  0.621750  0.273336  0.939827  -0.190970
    F   F125  0.607482  0.359389  0.968891  -0.212027
    F   F126  0.547122  0.340015  0.922988  -0.173423
    C   C187  0.686112  0.576637  0.951007  0.621105
    F   F127  0.726664  0.621750  0.939827  -0.190965
    F   F128  0.640611  0.607482  0.968891  -0.212028
    F   F129  0.659985  0.547122  0.922988  -0.173420
    C   C188  0.423364  0.686112  0.951007  0.621119
    F   F130  0.378250  0.726664  0.939827  -0.190978
    F   F131  0.392519  0.640611  0.968891  -0.212032
    F   F132  0.452878  0.659985  0.922988  -0.173416
    C   C189  0.313888  0.576637  0.048993  0.621149
    F   F133  0.273336  0.621750  0.060173  -0.190974
    F   F134  0.359389  0.607482  0.031109  -0.212042
    F   F135  0.340015  0.547122  0.077012  -0.173444
    C   C190  0.576637  0.686112  0.048993  0.621151
    F   F136  0.621750  0.726664  0.060173  -0.190975
    F   F137  0.607482  0.640611  0.031109  -0.212040
    F   F138  0.547122  0.659985  0.077012  -0.173445
    C   C191  0.686112  0.423363  0.048993  0.621146
    F   F139  0.726664  0.378250  0.060173  -0.190970
    F   F140  0.640611  0.392518  0.031109  -0.212045
    F   F141  0.659985  0.452878  0.077012  -0.173443
    C   C192  0.423363  0.313888  0.048993  0.621175
    F   F142  0.378250  0.273336  0.060173  -0.190978
    F   F143  0.392519  0.359389  0.031109  -0.212050
    F   F144  0.452878  0.340015  0.077012  -0.173451
