# Generated by REPEAT Assigner based on pymatgen
data_DB0-m2_o1_o2_f0_nbo.sym.87
_audit_creation_date              2022-05-24
_audit_creation_method            REPEAT_Assigner
_cell_length_a                    21.530473
_cell_length_b                    21.500078
_cell_length_c                    30.012112
_cell_angle_alpha                 90.000000
_cell_angle_beta                  90.000000
_cell_angle_gamma                 90.000000
_cell_volume                      13892.812277
_symmetry_space_group_name_H-M    P1
_symmetry_Int_Tables_number       1
loop_
    _symmetry_equiv_pos_site_id
    _symmetry_equiv_pos_as_xyz
    1  x,y,z
loop_
    _atom_site_type_symbol
    _atom_site_label
    _atom_site_fract_x
    _atom_site_fract_y
    _atom_site_fract_z
    _atom_type_partial_charge
    C   C1    0.117888  0.500000  0.500000  0.604406
    C   C2    0.526923  0.718476  0.535058  0.604955
    C   C3    0.500000  0.000000  0.725491  0.204108
    C   C4    0.500000  0.000000  0.774506  0.203668
    C   C5    0.000000  0.500000  0.774509  0.204243
    C   C6    0.500000  0.000000  0.225494  0.203728
    C   C7    0.000000  0.500000  0.225491  0.204000
    C   C8    0.500000  0.382206  0.500000  0.579407
    C   C9    0.382452  0.500000  0.500000  0.946010
    C   C10   0.500000  0.617795  0.500000  0.579445
    C   C11   0.617548  0.500000  0.500000  0.946437
    C   C12   0.000000  0.882206  0.000000  0.579469
    C   C13   0.717742  0.445296  0.492874  0.404647
    C   C14   0.882452  0.000000  0.000000  0.946208
    C   C15   0.000000  0.117795  0.000000  0.579490
    C   C16   0.117548  0.000000  0.000000  0.946066
    C   C17   0.314565  0.500000  0.500000  -0.375433
    C   C18   0.500000  0.685951  0.500000  -0.415834
    C   C19   0.685435  0.500000  0.500000  -0.375703
    C   C20   0.500000  0.314050  0.500000  -0.415768
    C   C21   0.814565  0.000000  0.000000  -0.375582
    C   C22   0.000000  0.185950  0.000000  -0.416050
    C   C23   0.185435  0.000000  0.000000  -0.375574
    C   C24   0.473076  0.281524  0.535058  0.604442
    C   C25   0.000000  0.814050  0.000000  -0.415980
    C   C26   0.102948  0.618227  0.363934  0.824138
    C   C27   0.143259  0.652672  0.395801  -0.488031
    C   C28   0.607306  0.886672  0.364522  0.810679
    C   C29   0.637288  0.841389  0.395287  -0.523150
    C   C30   0.897051  0.381773  0.363934  0.824084
    C   C31   0.856741  0.347328  0.395801  -0.487733
    C   C32   0.392693  0.113328  0.364522  0.810462
    C   C33   0.362711  0.158611  0.395286  -0.522687
    C   C34   0.102948  0.381773  0.636066  0.824209
    C   C35   0.282257  0.445296  0.507126  0.404531
    C   C36   0.143259  0.347328  0.604199  -0.488060
    C   C37   0.607306  0.113328  0.635478  0.810639
    C   C38   0.637288  0.158611  0.604713  -0.523010
    C   C39   0.897051  0.618227  0.636066  0.824150
    C   C40   0.856741  0.652672  0.604199  -0.487864
    C   C41   0.392693  0.886672  0.635478  0.810420
    C   C42   0.362711  0.841389  0.604713  -0.522923
    C   C43   0.602948  0.118227  0.863934  0.824304
    C   C44   0.643259  0.152672  0.895800  -0.487858
    C   C45   0.107307  0.386672  0.864522  0.810625
    C   C46   0.526923  0.281524  0.464942  0.604936
    C   C47   0.137289  0.341389  0.895286  -0.522932
    C   C48   0.397052  0.881773  0.863934  0.824059
    C   C49   0.356741  0.847328  0.895801  -0.487852
    C   C50   0.892693  0.613328  0.864522  0.810577
    C   C51   0.862711  0.658611  0.895287  -0.522989
    C   C52   0.602948  0.881773  0.136066  0.824148
    C   C53   0.643259  0.847328  0.104199  -0.487798
    C   C54   0.107307  0.613328  0.135478  0.810578
    C   C55   0.137289  0.658611  0.104713  -0.522857
    C   C56   0.397052  0.118227  0.136066  0.824116
    C   C57   0.717742  0.554704  0.507126  0.404566
    C   C58   0.356741  0.152672  0.104199  -0.487851
    C   C59   0.892693  0.386672  0.135478  0.810560
    C   C60   0.862711  0.341389  0.104713  -0.523104
    C   C61   0.326684  0.640168  0.526394  0.724294
    C   C62   0.336999  0.708737  0.527978  -0.451598
    C   C63   0.530818  0.688253  0.609696  0.761212
    C   C64   0.550330  0.644169  0.645421  -0.472417
    C   C65   0.673315  0.359832  0.526394  0.724294
    C   C66   0.663000  0.291264  0.527978  -0.451456
    C   C67   0.469182  0.311747  0.609696  0.761075
    C   C68   0.473076  0.718476  0.464942  0.604431
    C   C69   0.449669  0.355831  0.645421  -0.472499
    C   C70   0.326684  0.359832  0.473606  0.724407
    C   C71   0.336999  0.291264  0.472022  -0.451554
    C   C72   0.530818  0.311747  0.390304  0.761255
    C   C73   0.550330  0.355831  0.354579  -0.472443
    C   C74   0.673315  0.640168  0.473606  0.724201
    C   C75   0.663000  0.708737  0.472022  -0.451514
    C   C76   0.469182  0.688253  0.390304  0.761048
    C   C77   0.449669  0.644169  0.354579  -0.472480
    C   C78   0.826684  0.140168  0.026394  0.724292
    C   C79   0.782258  0.054704  0.992874  0.404747
    C   C80   0.837000  0.208737  0.027978  -0.451652
    C   C81   0.030818  0.188253  0.109696  0.761378
    C   C82   0.050330  0.144169  0.145421  -0.472630
    C   C83   0.173316  0.859832  0.026394  0.724394
    C   C84   0.163000  0.791264  0.027978  -0.451522
    C   C85   0.969182  0.811747  0.109696  0.761269
    C   C86   0.949670  0.855831  0.145421  -0.472469
    C   C87   0.826684  0.859832  0.973606  0.724218
    C   C88   0.837000  0.791263  0.972022  -0.451521
    C   C89   0.030818  0.811747  0.890304  0.761216
    C   C90   0.026924  0.218476  0.035058  0.605086
    C   C91   0.050330  0.855831  0.854579  -0.472470
    C   C92   0.173316  0.140168  0.973606  0.724309
    C   C93   0.163000  0.208737  0.972022  -0.451541
    C   C94   0.969182  0.188253  0.890304  0.761277
    C   C95   0.949670  0.144169  0.854579  -0.472518
    C   C96   0.217742  0.945296  0.992874  0.404749
    C   C97   0.500000  0.882184  0.500000  0.744763
    C   C98   0.973076  0.781524  0.035058  0.604903
    C   C99   0.782258  0.945296  0.007126  0.404668
    C   C100  0.026924  0.781524  0.964942  0.604819
    C   C101  0.217742  0.054704  0.007126  0.404723
    C   C102  0.973076  0.218476  0.964942  0.604879
    C   C103  0.000000  0.500000  0.415590  0.951591
    C   C104  0.500000  0.000000  0.415581  0.803157
    C   C105  0.000000  0.500000  0.584410  0.951794
    C   C106  0.500000  0.000000  0.584419  0.803154
    C   C107  0.500000  0.000000  0.915590  0.951604
    C   C108  0.882111  0.500000  0.500000  0.603813
    C   C109  0.000000  0.500000  0.915581  0.803193
    C   C110  0.500000  0.000000  0.084410  0.951620
    C   C111  0.000000  0.500000  0.084419  0.803132
    C   C112  0.185922  0.500000  0.500000  0.032201
    C   C113  0.500000  0.814538  0.500000  0.013233
    C   C114  0.814078  0.500000  0.500000  0.032842
    C   C115  0.500000  0.185462  0.500000  0.013549
    C   C116  0.685922  0.000000  0.000000  0.032599
    C   C117  0.000000  0.314538  0.000000  0.013229
    C   C118  0.314078  0.000000  0.000000  0.032572
    C   C119  0.500000  0.117816  0.500000  0.744511
    C   C120  0.000000  0.685462  0.000000  0.013326
    C   C121  0.218248  0.554404  0.492249  -0.265948
    C   C122  0.527899  0.782649  0.534241  -0.377302
    C   C123  0.781752  0.445596  0.492249  -0.266238
    C   C124  0.472100  0.217351  0.534241  -0.377151
    C   C125  0.218248  0.445596  0.507751  -0.265876
    C   C126  0.527899  0.217351  0.465759  -0.377458
    C   C127  0.781752  0.554404  0.507751  -0.266236
    C   C128  0.472100  0.782649  0.465759  -0.376982
    C   C129  0.718248  0.054404  0.992249  -0.266208
    C   C130  0.617888  0.000000  0.000000  0.603853
    C   C131  0.027899  0.282649  0.034241  -0.377185
    C   C132  0.281752  0.945596  0.992249  -0.266229
    C   C133  0.972101  0.717351  0.034241  -0.377282
    C   C134  0.718248  0.945596  0.007751  -0.266173
    C   C135  0.027899  0.717351  0.965759  -0.377201
    C   C136  0.281752  0.054404  0.007751  -0.266180
    C   C137  0.972101  0.282649  0.965759  -0.377263
    C   C138  0.048036  0.527514  0.297809  -0.427603
    C   C139  0.522454  0.949354  0.297819  -0.384603
    C   C140  0.951964  0.472487  0.297809  -0.427337
    C   C141  0.000000  0.382184  0.000000  0.744965
    C   C142  0.477546  0.050647  0.297819  -0.384508
    C   C143  0.048036  0.472487  0.702191  -0.427399
    C   C144  0.522454  0.050647  0.702181  -0.384541
    C   C145  0.951964  0.527514  0.702191  -0.427410
    C   C146  0.477546  0.949354  0.702181  -0.384630
    C   C147  0.548036  0.027513  0.797809  -0.427350
    C   C148  0.022454  0.449354  0.797819  -0.384618
    C   C149  0.451964  0.972486  0.797809  -0.427367
    C   C150  0.977546  0.550646  0.797819  -0.384664
    C   C151  0.548036  0.972487  0.202191  -0.427325
    C   C152  0.382112  0.000000  0.000000  0.603979
    C   C153  0.022454  0.550647  0.202181  -0.384406
    C   C154  0.451964  0.027514  0.202191  -0.427518
    C   C155  0.977546  0.449354  0.202181  -0.384579
    C   C156  0.047618  0.528864  0.343821  0.527698
    C   C157  0.523623  0.949553  0.343824  0.394414
    C   C158  0.952381  0.471136  0.343821  0.527110
    C   C159  0.476377  0.050447  0.343824  0.393994
    C   C160  0.047619  0.471136  0.656179  0.527605
    C   C161  0.523623  0.050447  0.656176  0.394071
    C   C162  0.952381  0.528864  0.656179  0.527130
    C   C163  0.000000  0.617816  0.000000  0.744893
    C   C164  0.476377  0.949553  0.656176  0.394390
    C   C165  0.547619  0.028864  0.843821  0.527180
    C   C166  0.023623  0.449553  0.843824  0.394339
    C   C167  0.452381  0.971136  0.843821  0.527281
    C   C168  0.976377  0.550447  0.843824  0.394323
    C   C169  0.547619  0.971136  0.156179  0.527207
    C   C170  0.023623  0.550447  0.156176  0.394092
    C   C171  0.452381  0.028864  0.156179  0.527361
    C   C172  0.976377  0.449553  0.156176  0.394263
    C   C173  0.000000  0.500000  0.366934  -0.487800
    C   C174  0.282257  0.554704  0.492874  0.404575
    C   C175  0.500000  0.000000  0.366946  -0.309381
    C   C176  0.000000  0.500000  0.633066  -0.487799
    C   C177  0.500000  0.000000  0.633054  -0.309396
    C   C178  0.500000  0.000000  0.866934  -0.487699
    C   C179  0.000000  0.500000  0.866946  -0.309494
    C   C180  0.500000  0.000000  0.133066  -0.487737
    C   C181  0.000000  0.500000  0.133054  -0.309375
    C   C182  0.000000  0.500000  0.274506  0.203792
    C   C183  0.500000  0.000000  0.274509  0.204075
    C   C184  0.000000  0.500000  0.725494  0.203647
    Cu  Cu1   0.000000  0.439120  0.500000  0.922946
    Cu  Cu2   0.500000  0.500000  0.456553  0.874237
    Cu  Cu3   0.000000  0.000000  0.043447  0.874229
    Cu  Cu4   0.000000  0.000000  0.956553  0.874229
    Cu  Cu5   0.439139  0.000000  0.500000  0.968891
    Cu  Cu6   0.000000  0.560881  0.500000  0.923103
    Cu  Cu7   0.560860  0.000000  0.500000  0.968754
    Cu  Cu8   0.500000  0.939120  0.000000  0.923000
    Cu  Cu9   0.939139  0.500000  0.000000  0.968900
    Cu  Cu10  0.500000  0.060881  0.000000  0.923093
    Cu  Cu11  0.060861  0.500000  0.000000  0.968918
    Cu  Cu12  0.500000  0.500000  0.543447  0.874236
    H   H1    0.087343  0.547027  0.280335  0.229874
    H   H2    0.038030  0.408255  0.780376  0.224016
    H   H3    0.299844  0.730631  0.548179  0.147189
    H   H4    0.582780  0.646980  0.561889  0.327591
    H   H5    0.589624  0.614870  0.634030  0.099242
    H   H6    0.510560  0.613860  0.654352  0.154224
    H   H7    0.564981  0.670956  0.675192  0.151277
    H   H8    0.704004  0.359175  0.463578  0.296245
    H   H9    0.663445  0.271033  0.494008  0.071337
    H   H10   0.617490  0.281691  0.543778  0.151097
    H   H11   0.700156  0.269369  0.548179  0.147077
    H   H12   0.417219  0.353020  0.561890  0.327510
    H   H13   0.412657  0.952973  0.780335  0.229886
    H   H14   0.410375  0.385131  0.634030  0.099352
    H   H15   0.489439  0.386140  0.654352  0.154191
    H   H16   0.435019  0.329044  0.675192  0.151317
    H   H17   0.295996  0.359175  0.536422  0.296274
    H   H18   0.336555  0.271033  0.505992  0.071396
    H   H19   0.382509  0.281691  0.456222  0.151034
    H   H20   0.299844  0.269369  0.451821  0.147130
    H   H21   0.582780  0.353020  0.438110  0.327670
    H   H22   0.589624  0.385131  0.365970  0.099267
    H   H23   0.510560  0.386140  0.345648  0.154233
    H   H24   0.961969  0.591745  0.780377  0.224051
    H   H25   0.564981  0.329044  0.324808  0.151269
    H   H26   0.704004  0.640826  0.536422  0.296239
    H   H27   0.663445  0.728967  0.505992  0.071368
    H   H28   0.617490  0.718309  0.456222  0.151137
    H   H29   0.700156  0.730631  0.451821  0.147122
    H   H30   0.417219  0.646980  0.438110  0.327425
    H   H31   0.410375  0.614870  0.365970  0.099332
    H   H32   0.489439  0.613860  0.345648  0.154181
    H   H33   0.435019  0.670956  0.324808  0.151322
    H   H34   0.795996  0.140825  0.963578  0.296207
    H   H35   0.587344  0.952973  0.219665  0.229913
    H   H36   0.836555  0.228967  0.994008  0.071406
    H   H37   0.882509  0.218309  0.043778  0.151152
    H   H38   0.799844  0.230631  0.048179  0.147182
    H   H39   0.082780  0.146980  0.061890  0.327520
    H   H40   0.089624  0.114870  0.134030  0.099318
    H   H41   0.010560  0.113860  0.154352  0.154265
    H   H42   0.064981  0.170956  0.175192  0.151305
    H   H43   0.204004  0.859175  0.963578  0.296260
    H   H44   0.163445  0.771033  0.994008  0.071354
    H   H45   0.117491  0.781691  0.043778  0.151058
    H   H46   0.038030  0.591745  0.219624  0.224090
    H   H47   0.200156  0.769369  0.048179  0.147118
    H   H48   0.917220  0.853020  0.061890  0.327542
    H   H49   0.910376  0.885130  0.134030  0.099267
    H   H50   0.989440  0.886140  0.154352  0.154228
    H   H51   0.935019  0.829044  0.175192  0.151286
    H   H52   0.795996  0.859175  0.036422  0.296231
    H   H53   0.836555  0.771033  0.005992  0.071386
    H   H54   0.882509  0.781691  0.956222  0.151067
    H   H55   0.799844  0.769369  0.951821  0.147153
    H   H56   0.082780  0.853020  0.938110  0.327531
    H   H57   0.412657  0.047027  0.219665  0.229907
    H   H58   0.089624  0.885130  0.865970  0.099261
    H   H59   0.010560  0.886140  0.845648  0.154233
    H   H60   0.064981  0.829044  0.824808  0.151290
    H   H61   0.204004  0.140825  0.036422  0.296266
    H   H62   0.163445  0.228967  0.005992  0.071361
    H   H63   0.117490  0.218309  0.956222  0.151058
    H   H64   0.200156  0.230631  0.951821  0.147148
    H   H65   0.917220  0.146980  0.938110  0.327573
    H   H66   0.910376  0.114870  0.865970  0.099290
    H   H67   0.989440  0.113860  0.845648  0.154238
    H   H68   0.961969  0.408255  0.219623  0.223993
    H   H69   0.935019  0.170956  0.824808  0.151297
    H   H70   0.193963  0.597716  0.486993  0.141119
    H   H71   0.550728  0.808130  0.560617  0.180290
    H   H72   0.806036  0.402284  0.486993  0.141136
    H   H73   0.538030  0.908255  0.280377  0.223989
    H   H74   0.449271  0.191871  0.560617  0.180273
    H   H75   0.193963  0.402284  0.513007  0.141110
    H   H76   0.550728  0.191871  0.439383  0.180315
    H   H77   0.806036  0.597716  0.513007  0.141157
    H   H78   0.449271  0.808129  0.439383  0.180243
    H   H79   0.693964  0.097716  0.986993  0.141185
    H   H80   0.050729  0.308129  0.060617  0.180254
    H   H81   0.306037  0.902284  0.986993  0.141195
    H   H82   0.949271  0.691871  0.060617  0.180293
    H   H83   0.693963  0.902284  0.013007  0.141185
    H   H84   0.912656  0.452973  0.280335  0.229932
    H   H85   0.050729  0.691871  0.939383  0.180268
    H   H86   0.306037  0.097716  0.013007  0.141175
    H   H87   0.949271  0.308129  0.939383  0.180298
    H   H88   0.112477  0.536768  0.396641  0.314777
    H   H89   0.125163  0.646633  0.430093  0.118704
    H   H90   0.143038  0.702830  0.387215  0.137923
    H   H91   0.191406  0.634524  0.393838  0.112326
    H   H92   0.524636  0.883408  0.396188  0.338542
    H   H93   0.629545  0.855769  0.430299  0.121854
    H   H94   0.687889  0.839823  0.388521  0.137293
    H   H95   0.461969  0.091745  0.280376  0.224106
    H   H96   0.617139  0.794594  0.389834  0.169437
    H   H97   0.887521  0.463231  0.396642  0.314811
    H   H98   0.874837  0.353368  0.430093  0.118532
    H   H99   0.856962  0.297170  0.387215  0.137892
    H   H100  0.808594  0.365477  0.393837  0.112300
    H   H101  0.475365  0.116592  0.396187  0.338544
    H   H102  0.370454  0.144232  0.430299  0.121617
    H   H103  0.312110  0.160177  0.388521  0.137339
    H   H104  0.382860  0.205406  0.389834  0.169345
    H   H105  0.112477  0.463232  0.603358  0.314859
    H   H106  0.087343  0.452973  0.719665  0.229857
    H   H107  0.125163  0.353367  0.569907  0.118747
    H   H108  0.143038  0.297170  0.612785  0.137933
    H   H109  0.191406  0.365476  0.606162  0.112307
    H   H110  0.524636  0.116593  0.603812  0.338503
    H   H111  0.629545  0.144232  0.569700  0.121779
    H   H112  0.687889  0.160177  0.611479  0.137298
    H   H113  0.617139  0.205406  0.610166  0.169428
    H   H114  0.887521  0.536769  0.603358  0.314784
    H   H115  0.874837  0.646632  0.569907  0.118585
    H   H116  0.856962  0.702830  0.612785  0.137912
    H   H117  0.538030  0.091745  0.719623  0.224065
    H   H118  0.808594  0.634524  0.606163  0.112334
    H   H119  0.475365  0.883409  0.603812  0.338608
    H   H120  0.370454  0.855768  0.569700  0.121835
    H   H121  0.312110  0.839823  0.611479  0.137333
    H   H122  0.382860  0.794594  0.610166  0.169356
    H   H123  0.612479  0.036770  0.896642  0.314792
    H   H124  0.625163  0.146632  0.930093  0.118485
    H   H125  0.643038  0.202830  0.887215  0.137932
    H   H126  0.691406  0.134523  0.893837  0.112307
    H   H127  0.024635  0.383409  0.896187  0.338523
    H   H128  0.912656  0.547027  0.719665  0.229944
    H   H129  0.129546  0.355768  0.930299  0.121739
    H   H130  0.187889  0.339823  0.888521  0.137317
    H   H131  0.117140  0.294594  0.889834  0.169409
    H   H132  0.387523  0.963233  0.896641  0.314784
    H   H133  0.374836  0.853367  0.930093  0.118597
    H   H134  0.356962  0.797170  0.887215  0.137920
    H   H135  0.308594  0.865476  0.893838  0.112303
    H   H136  0.975364  0.616592  0.896188  0.338540
    H   H137  0.870454  0.644232  0.930300  0.121854
    H   H138  0.812111  0.660177  0.888521  0.137307
    H   H139  0.461969  0.908255  0.719624  0.224046
    H   H140  0.882861  0.705406  0.889834  0.169391
    H   H141  0.612479  0.963231  0.103358  0.314816
    H   H142  0.625163  0.853368  0.069907  0.118559
    H   H143  0.643038  0.797170  0.112785  0.137911
    H   H144  0.691406  0.865476  0.106163  0.112282
    H   H145  0.024635  0.616592  0.103812  0.338563
    H   H146  0.129546  0.644232  0.069700  0.121771
    H   H147  0.187889  0.660177  0.111479  0.137314
    H   H148  0.117140  0.705406  0.110166  0.169374
    H   H149  0.387523  0.036768  0.103358  0.314763
    H   H150  0.587344  0.047027  0.780336  0.229895
    H   H151  0.374837  0.146633  0.069907  0.118599
    H   H152  0.356962  0.202830  0.112785  0.137916
    H   H153  0.308594  0.134524  0.106162  0.112291
    H   H154  0.975364  0.383408  0.103812  0.338564
    H   H155  0.870454  0.355768  0.069700  0.121887
    H   H156  0.812111  0.339823  0.111479  0.137320
    H   H157  0.882861  0.294594  0.110166  0.169446
    H   H158  0.295996  0.640825  0.463578  0.296253
    H   H159  0.336555  0.728967  0.494008  0.071419
    H   H160  0.382509  0.718309  0.543778  0.151089
    N   N1    0.098233  0.555750  0.366891  -0.700704
    N   N2    0.045463  0.396465  0.866806  -0.630877
    N   N3    0.401766  0.944250  0.866891  -0.700416
    N   N4    0.954537  0.603535  0.866806  -0.630868
    N   N5    0.598234  0.944250  0.133109  -0.700452
    N   N6    0.045463  0.603535  0.133194  -0.630836
    N   N7    0.401766  0.055750  0.133109  -0.700431
    N   N8    0.954537  0.396465  0.133194  -0.630845
    N   N9    0.314031  0.611524  0.487390  -0.578735
    N   N10   0.558847  0.686961  0.569464  -0.685155
    N   N11   0.685968  0.388476  0.487390  -0.578832
    N   N12   0.545463  0.896466  0.366806  -0.630949
    N   N13   0.441152  0.313040  0.569464  -0.684785
    N   N14   0.314031  0.388476  0.512610  -0.578805
    N   N15   0.558847  0.313040  0.430536  -0.685258
    N   N16   0.685968  0.611524  0.512610  -0.578753
    N   N17   0.441152  0.686961  0.430536  -0.684666
    N   N18   0.814031  0.111524  0.987390  -0.578755
    N   N19   0.058847  0.186961  0.069464  -0.685133
    N   N20   0.185969  0.888476  0.987390  -0.578852
    N   N21   0.941153  0.813039  0.069464  -0.685096
    N   N22   0.814031  0.888476  0.012610  -0.578754
    N   N23   0.901766  0.444250  0.366891  -0.700358
    N   N24   0.058847  0.813039  0.930536  -0.685031
    N   N25   0.185969  0.111524  0.012610  -0.578835
    N   N26   0.941153  0.186961  0.930536  -0.685116
    N   N27   0.454537  0.103535  0.366806  -0.630731
    N   N28   0.098233  0.444250  0.633109  -0.700772
    N   N29   0.545463  0.103535  0.633194  -0.630655
    N   N30   0.901766  0.555750  0.633109  -0.700374
    N   N31   0.454537  0.896466  0.633194  -0.631046
    N   N32   0.598234  0.055750  0.866891  -0.700427
    O   O1    0.088717  0.448556  0.511788  -0.536724
    O   O2    0.948493  0.411122  0.011640  -0.589259
    O   O3    0.411283  0.051445  0.011788  -0.536434
    O   O4    0.051507  0.588878  0.011640  -0.589203
    O   O5    0.588717  0.051445  0.988212  -0.536380
    O   O6    0.948493  0.588878  0.988360  -0.589240
    O   O7    0.411283  0.948555  0.988212  -0.536440
    O   O8    0.051507  0.411122  0.988360  -0.589225
    O   O9    0.016360  0.448458  0.436368  -0.649906
    O   O10   0.448477  0.983780  0.436347  -0.628796
    O   O11   0.983640  0.551542  0.436368  -0.649877
    O   O12   0.448492  0.911122  0.511640  -0.589042
    O   O13   0.551523  0.016220  0.436347  -0.628683
    O   O14   0.016360  0.551542  0.563632  -0.650028
    O   O15   0.448477  0.016220  0.563653  -0.628719
    O   O16   0.983640  0.448458  0.563632  -0.649976
    O   O17   0.551523  0.983780  0.563653  -0.628756
    O   O18   0.516360  0.948458  0.936368  -0.649942
    O   O19   0.948477  0.483780  0.936347  -0.628735
    O   O20   0.483640  0.051542  0.936368  -0.649980
    O   O21   0.051523  0.516220  0.936347  -0.628755
    O   O22   0.516360  0.051542  0.063632  -0.649975
    O   O23   0.911283  0.551445  0.511788  -0.536429
    O   O24   0.948477  0.516220  0.063653  -0.628721
    O   O25   0.483640  0.948458  0.063632  -0.649950
    O   O26   0.051523  0.483780  0.063653  -0.628768
    O   O27   0.517878  0.411354  0.536616  -0.492018
    O   O28   0.411476  0.482013  0.536609  -0.603952
    O   O29   0.482122  0.588646  0.536616  -0.492135
    O   O30   0.588523  0.517987  0.536609  -0.604021
    O   O31   0.517878  0.588646  0.463384  -0.492058
    O   O32   0.411476  0.517987  0.463391  -0.603979
    O   O33   0.482122  0.411354  0.463384  -0.492088
    O   O34   0.551507  0.088878  0.511640  -0.589088
    O   O35   0.588523  0.482013  0.463391  -0.604007
    O   O36   0.017878  0.911354  0.036616  -0.492121
    O   O37   0.911476  0.982013  0.036609  -0.603986
    O   O38   0.982122  0.088646  0.036616  -0.492118
    O   O39   0.088524  0.017987  0.036609  -0.603941
    O   O40   0.017878  0.088646  0.963384  -0.492107
    O   O41   0.911476  0.017987  0.963391  -0.604071
    O   O42   0.982122  0.911354  0.963384  -0.492088
    O   O43   0.088524  0.982013  0.963391  -0.603929
    O   O44   0.073754  0.646891  0.335825  -0.581882
    O   O45   0.088717  0.551445  0.488212  -0.536529
    O   O46   0.639035  0.915039  0.337702  -0.584590
    O   O47   0.926245  0.353109  0.335825  -0.582002
    O   O48   0.360964  0.084962  0.337702  -0.584524
    O   O49   0.073754  0.353109  0.664175  -0.581936
    O   O50   0.639035  0.084962  0.662298  -0.584663
    O   O51   0.926245  0.646891  0.664175  -0.581979
    O   O52   0.360964  0.915039  0.662298  -0.584439
    O   O53   0.573755  0.146891  0.835825  -0.582034
    O   O54   0.139035  0.415039  0.837702  -0.584589
    O   O55   0.426245  0.853109  0.835825  -0.581933
    O   O56   0.448492  0.088878  0.488360  -0.588979
    O   O57   0.860965  0.584961  0.837702  -0.584590
    O   O58   0.573755  0.853109  0.164175  -0.582005
    O   O59   0.139035  0.584962  0.162298  -0.584637
    O   O60   0.426245  0.146891  0.164175  -0.581953
    O   O61   0.860965  0.415039  0.162298  -0.584546
    O   O62   0.328343  0.610270  0.560891  -0.560720
    O   O63   0.488658  0.724720  0.616914  -0.592680
    O   O64   0.671656  0.389730  0.560891  -0.560729
    O   O65   0.511342  0.275280  0.616914  -0.592671
    O   O66   0.328343  0.389730  0.439109  -0.560730
    O   O67   0.911283  0.448556  0.488212  -0.536424
    O   O68   0.488658  0.275280  0.383086  -0.592681
    O   O69   0.671656  0.610270  0.439109  -0.560710
    O   O70   0.511342  0.724720  0.383086  -0.592667
    O   O71   0.828343  0.110270  0.060891  -0.560726
    O   O72   0.988658  0.224720  0.116913  -0.592841
    O   O73   0.171657  0.889730  0.060891  -0.560731
    O   O74   0.011342  0.775280  0.116914  -0.592718
    O   O75   0.828343  0.889730  0.939109  -0.560679
    O   O76   0.988658  0.775280  0.883086  -0.592684
    O   O77   0.171657  0.110270  0.939109  -0.560718
    O   O78   0.551507  0.911122  0.488360  -0.589130
    O   O79   0.011342  0.224720  0.883086  -0.592699
    O   O80   0.588717  0.948555  0.011788  -0.536388
