# Generated by REPEAT Assigner based on pymatgen
data_DB0-m2_o1_o3_f0_nbo.sym.74_sqe
_audit_creation_date              2022-05-24
_audit_creation_method            REPEAT_Assigner
_cell_length_a                    21.536229
_cell_length_b                    21.536229
_cell_length_c                    38.574622
_cell_angle_alpha                 90.000000
_cell_angle_beta                  90.000000
_cell_angle_gamma                 90.000000
_cell_volume                      17891.262770
_symmetry_space_group_name_H-M    P1
_symmetry_Int_Tables_number       1
loop_
    _symmetry_equiv_pos_site_id
    _symmetry_equiv_pos_as_xyz
    1  x,y,z
loop_
    _atom_site_type_symbol
    _atom_site_label
    _atom_site_fract_x
    _atom_site_fract_y
    _atom_site_fract_z
    _atom_type_partial_charge
    O   O1    0.588453  0.051118  0.509748  -0.594217
    O   O2    0.948882  0.588453  0.509748  -0.594231
    O   O3    0.411547  0.948882  0.509748  -0.594213
    O   O4    0.051118  0.411547  0.509748  -0.594230
    O   O5    0.588453  0.948882  0.490252  -0.594198
    O   O6    0.948882  0.411547  0.490252  -0.594246
    O   O7    0.411547  0.051118  0.490252  -0.594219
    O   O8    0.051118  0.588453  0.490252  -0.594219
    O   O9    0.088453  0.551118  0.009748  -0.594203
    O   O10   0.448882  0.088453  0.009748  -0.594284
    O   O11   0.911547  0.448882  0.009748  -0.594247
    O   O12   0.551118  0.911547  0.009748  -0.594235
    O   O13   0.088453  0.448882  0.990252  -0.594228
    O   O14   0.448882  0.911547  0.990252  -0.594288
    O   O15   0.911547  0.551118  0.990252  -0.594191
    O   O16   0.551118  0.088453  0.990252  -0.594237
    C   C1    0.617585  0.000000  0.500000  0.693216
    C   C2    0.000000  0.617585  0.500000  0.693178
    C   C3    0.382415  0.000000  0.500000  0.693222
    C   C4    0.000000  0.382415  0.500000  0.693212
    C   C5    0.117585  0.500000  0.000000  0.693248
    C   C6    0.500000  0.117585  0.000000  0.693271
    C   C7    0.882415  0.500000  0.000000  0.693259
    C   C8    0.500000  0.882415  0.000000  0.693278
    O   O17   0.482633  0.051142  0.549498  -0.602447
    O   O18   0.948858  0.482633  0.549498  -0.602466
    O   O19   0.517367  0.948858  0.549498  -0.602426
    O   O20   0.051142  0.517367  0.549498  -0.602483
    O   O21   0.482633  0.948858  0.450502  -0.602438
    O   O22   0.948858  0.517367  0.450502  -0.602489
    O   O23   0.517367  0.051142  0.450502  -0.602424
    O   O24   0.051142  0.482633  0.450502  -0.602451
    O   O25   0.982633  0.551142  0.049498  -0.602415
    O   O26   0.448858  0.982633  0.049498  -0.602498
    O   O27   0.017367  0.448858  0.049498  -0.602457
    O   O28   0.551142  0.017367  0.049498  -0.602449
    O   O29   0.982633  0.448858  0.950502  -0.602469
    O   O30   0.448858  0.017367  0.950502  -0.602502
    O   O31   0.017367  0.551142  0.950502  -0.602431
    O   O32   0.551142  0.982633  0.950502  -0.602465
    C   C9    0.500000  0.000000  0.565780  0.699592
    C   C10   0.000000  0.500000  0.565780  0.699617
    C   C11   0.500000  0.000000  0.434219  0.699567
    C   C12   0.000000  0.500000  0.434219  0.699578
    C   C13   0.000000  0.500000  0.065780  0.699623
    C   C14   0.500000  0.000000  0.065780  0.699647
    C   C15   0.000000  0.500000  0.934219  0.699603
    C   C16   0.500000  0.000000  0.934219  0.699616
    Cu  Cu1   0.500000  0.060621  0.500000  0.955534
    Cu  Cu2   0.939379  0.500000  0.500000  0.955393
    Cu  Cu3   0.500000  0.939379  0.500000  0.955533
    Cu  Cu4   0.060621  0.500000  0.500000  0.955492
    Cu  Cu5   0.000000  0.560621  0.000000  0.955647
    Cu  Cu6   0.439379  0.000000  0.000000  0.955426
    Cu  Cu7   0.000000  0.439379  0.000000  0.955483
    Cu  Cu8   0.560621  0.000000  0.000000  0.955609
    C   C17   0.554675  0.991342  0.878153  -0.085736
    C   C18   0.008658  0.554675  0.878153  -0.085773
    C   C19   0.445325  0.008658  0.878153  -0.085748
    C   C20   0.991342  0.445325  0.878153  -0.085780
    C   C21   0.554675  0.008658  0.121847  -0.085734
    C   C22   0.008658  0.445325  0.121847  -0.085769
    C   C23   0.445325  0.991342  0.121847  -0.085737
    C   C24   0.991342  0.554675  0.121847  -0.085765
    C   C25   0.054675  0.491342  0.378153  -0.085822
    C   C26   0.508658  0.054675  0.378153  -0.085821
    C   C27   0.945325  0.508658  0.378153  -0.085810
    C   C28   0.491342  0.945325  0.378153  -0.085818
    C   C29   0.054675  0.508658  0.621847  -0.085798
    C   C30   0.508658  0.945325  0.621847  -0.085816
    C   C31   0.945325  0.491342  0.621847  -0.085814
    C   C32   0.491342  0.054675  0.621847  -0.085811
    H   H1    0.598197  0.985127  0.891642  0.117272
    H   H2    0.014873  0.598197  0.891642  0.117279
    H   H3    0.401803  0.014873  0.891642  0.117272
    H   H4    0.985127  0.401803  0.891642  0.117279
    H   H5    0.598197  0.014873  0.108358  0.117269
    H   H6    0.014873  0.401803  0.108358  0.117278
    H   H7    0.401803  0.985127  0.108358  0.117269
    H   H8    0.985127  0.598197  0.108358  0.117276
    H   H9    0.098197  0.485127  0.391642  0.117282
    H   H10   0.514873  0.098197  0.391642  0.117285
    H   H11   0.901803  0.514873  0.391642  0.117280
    H   H12   0.485127  0.901803  0.391642  0.117281
    H   H13   0.098197  0.514873  0.608358  0.117278
    H   H14   0.514873  0.901803  0.608358  0.117282
    H   H15   0.901803  0.485127  0.608358  0.117280
    H   H16   0.485127  0.098197  0.608358  0.117276
    C   C33   0.554723  0.991666  0.842423  -0.157260
    C   C34   0.008334  0.554723  0.842423  -0.157234
    C   C35   0.445277  0.008334  0.842423  -0.157259
    C   C36   0.991666  0.445277  0.842423  -0.157236
    C   C37   0.554723  0.008334  0.157577  -0.157263
    C   C38   0.008334  0.445277  0.157577  -0.157239
    C   C39   0.445277  0.991666  0.157577  -0.157262
    C   C40   0.991666  0.554723  0.157577  -0.157244
    C   C41   0.054723  0.491666  0.342423  -0.157225
    C   C42   0.508334  0.054723  0.342423  -0.157214
    C   C43   0.945277  0.508334  0.342423  -0.157212
    C   C44   0.491666  0.945277  0.342423  -0.157211
    C   C45   0.054723  0.508334  0.657577  -0.157223
    C   C46   0.508334  0.945277  0.657577  -0.157219
    C   C47   0.945277  0.491666  0.657577  -0.157229
    C   C48   0.491666  0.054723  0.657577  -0.157228
    H   H17   0.598477  0.986641  0.829029  0.112007
    H   H18   0.013359  0.598477  0.829029  0.112009
    H   H19   0.401523  0.013359  0.829029  0.112009
    H   H20   0.986641  0.401523  0.829029  0.112009
    H   H21   0.598477  0.013359  0.170971  0.112009
    H   H22   0.013360  0.401523  0.170971  0.112001
    H   H23   0.401523  0.986641  0.170971  0.112008
    H   H24   0.986641  0.598477  0.170971  0.112008
    H   H25   0.098477  0.486641  0.329029  0.112005
    H   H26   0.513359  0.098477  0.329029  0.112006
    H   H27   0.901523  0.513359  0.329029  0.111996
    H   H28   0.486641  0.901523  0.329029  0.112006
    H   H29   0.098477  0.513359  0.670971  0.111995
    H   H30   0.513360  0.901523  0.670971  0.112000
    H   H31   0.901523  0.486641  0.670971  0.111997
    H   H32   0.486641  0.098477  0.670971  0.112007
    C   C49   0.500000  0.000000  0.824227  0.096952
    C   C50   0.000000  0.500000  0.824227  0.096963
    C   C51   0.500000  0.000000  0.175773  0.096976
    C   C52   0.000000  0.500000  0.175773  0.096983
    C   C53   0.000000  0.500000  0.324227  0.096975
    C   C54   0.500000  0.000000  0.324227  0.096984
    C   C55   0.000000  0.500000  0.675773  0.097000
    C   C56   0.500000  0.000000  0.675773  0.096997
    C   C57   0.500000  0.000000  0.896231  -0.054582
    C   C58   0.000000  0.500000  0.896231  -0.054517
    C   C59   0.500000  0.000000  0.103768  -0.054614
    C   C60   0.000000  0.500000  0.103768  -0.054550
    C   C61   0.000000  0.500000  0.396231  -0.054499
    C   C62   0.500000  0.000000  0.396231  -0.054489
    C   C63   0.000000  0.500000  0.603768  -0.054535
    C   C64   0.500000  0.000000  0.603768  -0.054516
    C   C65   0.460961  0.039180  0.767863  -0.141815
    C   C66   0.960820  0.460961  0.767863  -0.141897
    C   C67   0.539039  0.960820  0.767863  -0.141833
    C   C68   0.039180  0.539039  0.767863  -0.141897
    C   C69   0.460961  0.960820  0.232137  -0.141767
    C   C70   0.960820  0.539039  0.232137  -0.141809
    C   C71   0.539039  0.039180  0.232137  -0.141771
    C   C72   0.039180  0.460961  0.232137  -0.141762
    C   C73   0.960961  0.539180  0.267863  -0.141756
    C   C74   0.460820  0.960961  0.267863  -0.141799
    C   C75   0.039039  0.460820  0.267863  -0.141808
    C   C76   0.539180  0.039039  0.267863  -0.141799
    C   C77   0.960961  0.460820  0.732137  -0.141672
    C   C78   0.460820  0.039039  0.732137  -0.141763
    C   C79   0.039039  0.539180  0.732137  -0.141672
    C   C80   0.539180  0.960961  0.732137  -0.141742
    H   H33   0.430731  0.071219  0.781248  0.112387
    H   H34   0.928781  0.430731  0.781248  0.112398
    H   H35   0.569269  0.928781  0.781248  0.112389
    H   H36   0.071219  0.569269  0.781248  0.112398
    H   H37   0.430731  0.928781  0.218752  0.112381
    H   H38   0.928781  0.569269  0.218752  0.112386
    H   H39   0.569269  0.071219  0.218752  0.112381
    H   H40   0.071219  0.430731  0.218752  0.112385
    H   H41   0.930731  0.571219  0.281248  0.112379
    H   H42   0.428781  0.930731  0.281248  0.112381
    H   H43   0.069269  0.428781  0.281248  0.112383
    H   H44   0.571219  0.069269  0.281248  0.112383
    H   H45   0.930731  0.428781  0.718752  0.112369
    H   H46   0.428781  0.069269  0.718752  0.112378
    H   H47   0.069269  0.571219  0.718752  0.112369
    H   H48   0.571219  0.930731  0.718752  0.112380
    C   C81   0.500000  0.000000  0.713933  0.074971
    C   C82   0.000000  0.500000  0.713933  0.074932
    C   C83   0.500000  0.000000  0.286067  0.075021
    C   C84   0.000000  0.500000  0.286067  0.075034
    C   C85   0.000000  0.500000  0.213933  0.075037
    C   C86   0.500000  0.000000  0.213933  0.075049
    C   C87   0.000000  0.500000  0.786067  0.075141
    C   C88   0.500000  0.000000  0.786067  0.075106
    C   C89   0.717722  0.956643  0.480774  -0.256341
    C   C90   0.043357  0.717721  0.480774  -0.256355
    C   C91   0.282279  0.043357  0.480774  -0.256348
    C   C92   0.956643  0.282278  0.480774  -0.256350
    C   C93   0.717722  0.043357  0.519226  -0.256341
    C   C94   0.043357  0.282278  0.519226  -0.256352
    C   C95   0.282279  0.956643  0.519226  -0.256353
    C   C96   0.956643  0.717721  0.519226  -0.256358
    C   C97   0.217722  0.456643  0.980774  -0.256345
    C   C98   0.543357  0.217721  0.980774  -0.256329
    C   C99   0.782279  0.543357  0.980774  -0.256347
    C   C100  0.456643  0.782279  0.980774  -0.256339
    C   C101  0.217722  0.543357  0.019226  -0.256340
    C   C102  0.543357  0.782279  0.019226  -0.256336
    C   C103  0.782279  0.456643  0.019226  -0.256350
    C   C104  0.456643  0.217722  0.019226  -0.256337
    H   H49   0.692719  0.923104  0.465320  0.150889
    H   H50   0.076896  0.692719  0.465320  0.150892
    H   H51   0.307281  0.076896  0.465320  0.150895
    H   H52   0.923104  0.307281  0.465320  0.150889
    H   H53   0.692719  0.076896  0.534680  0.150888
    H   H54   0.076896  0.307281  0.534680  0.150889
    H   H55   0.307281  0.923104  0.534680  0.150894
    H   H56   0.923104  0.692719  0.534680  0.150894
    H   H57   0.192719  0.423104  0.965320  0.150889
    H   H58   0.576896  0.192719  0.965320  0.150888
    H   H59   0.807281  0.576896  0.965320  0.150893
    H   H60   0.423104  0.807281  0.965320  0.150889
    H   H61   0.192719  0.576896  0.034680  0.150886
    H   H62   0.576896  0.807281  0.034680  0.150887
    H   H63   0.807281  0.423104  0.034680  0.150893
    H   H64   0.423104  0.192719  0.034680  0.150884
    C   C105  0.781802  0.957026  0.480160  0.144950
    C   C106  0.042974  0.781802  0.480160  0.144943
    C   C107  0.218198  0.042974  0.480160  0.144943
    C   C108  0.957026  0.218198  0.480160  0.144958
    C   C109  0.781802  0.042974  0.519840  0.144950
    C   C110  0.042974  0.218198  0.519840  0.144963
    C   C111  0.218198  0.957026  0.519840  0.144948
    C   C112  0.957026  0.781802  0.519840  0.144943
    C   C113  0.281802  0.457026  0.980160  0.144983
    C   C114  0.542974  0.281802  0.980160  0.144984
    C   C115  0.718198  0.542974  0.980160  0.144984
    C   C116  0.457026  0.718198  0.980160  0.144989
    C   C117  0.281802  0.542974  0.019840  0.144989
    C   C118  0.542974  0.718198  0.019840  0.144994
    C   C119  0.718198  0.457026  0.019840  0.144985
    C   C120  0.457026  0.281802  0.019840  0.144997
    C   C121  0.814260  0.000000  0.500000  -0.192117
    C   C122  0.000000  0.814260  0.500000  -0.192127
    C   C123  0.185740  0.000000  0.500000  -0.192119
    C   C124  0.000000  0.185740  0.500000  -0.192132
    C   C125  0.314260  0.500000  0.000000  -0.192215
    C   C126  0.500000  0.314260  0.000000  -0.192245
    C   C127  0.685740  0.500000  0.000000  -0.192217
    C   C128  0.500000  0.685740  0.000000  -0.192247
    C   C129  0.685561  0.000000  0.500000  0.030686
    C   C130  0.000000  0.685561  0.500000  0.030721
    C   C131  0.314439  0.000000  0.500000  0.030702
    C   C132  0.000000  0.314439  0.500000  0.030690
    C   C133  0.185561  0.500000  0.000000  0.030678
    C   C134  0.500000  0.185561  0.000000  0.030633
    C   C135  0.814439  0.500000  0.000000  0.030682
    C   C136  0.500000  0.814439  0.000000  0.030639
    O   O33   0.017576  0.088655  0.471508  -0.454558
    O   O34   0.911345  0.017576  0.471508  -0.454557
    O   O35   0.982424  0.911345  0.471508  -0.454556
    O   O36   0.088655  0.982424  0.471508  -0.454556
    O   O37   0.017576  0.911345  0.528492  -0.454549
    O   O38   0.911345  0.982424  0.528492  -0.454548
    O   O39   0.982424  0.088655  0.528492  -0.454549
    O   O40   0.088655  0.017576  0.528492  -0.454548
    O   O41   0.517576  0.588655  0.971508  -0.454591
    O   O42   0.411345  0.517576  0.971508  -0.454597
    O   O43   0.482424  0.411345  0.971508  -0.454596
    O   O44   0.588655  0.482424  0.971508  -0.454595
    O   O45   0.517576  0.411345  0.028492  -0.454608
    O   O46   0.411345  0.482424  0.028492  -0.454610
    O   O47   0.482424  0.588655  0.028492  -0.454603
    O   O48   0.588655  0.517576  0.028492  -0.454611
    C   C137  0.000000  0.117739  0.500000  0.656332
    C   C138  0.882261  0.000000  0.500000  0.656335
    C   C139  0.000000  0.882261  0.500000  0.656340
    C   C140  0.117739  0.000000  0.500000  0.656334
    C   C141  0.500000  0.617739  0.000000  0.656503
    C   C142  0.382261  0.500000  0.000000  0.656505
    C   C143  0.500000  0.382261  0.000000  0.656511
    C   C144  0.617739  0.500000  0.000000  0.656504
    Cu  Cu9   0.000000  0.000000  0.466223  0.758973
    Cu  Cu10  0.000000  0.000000  0.533777  0.759077
    Cu  Cu11  0.500000  0.500000  0.966223  0.759148
    Cu  Cu12  0.500000  0.500000  0.033777  0.759087
    C   C145  0.814645  0.909578  0.458600  -0.112772
    C   C146  0.835865  0.937866  0.425395  0.011744
    C   C147  0.869846  0.904793  0.403349  -0.482460
    H   H65   0.782609  0.870822  0.452486  0.079473
    H   H66   0.854665  0.889852  0.472810  0.050264
    H   H67   0.824126  0.985608  0.419349  0.081762
    H   H68   0.882094  0.857206  0.409453  0.187335
    H   H69   0.885644  0.925544  0.379320  0.169403
    C   C148  0.090422  0.814645  0.458600  -0.112760
    C   C149  0.062134  0.835865  0.425395  0.011744
    C   C150  0.095207  0.869846  0.403349  -0.482462
    H   H70   0.129178  0.782609  0.452486  0.079472
    H   H71   0.110148  0.854665  0.472810  0.050254
    H   H72   0.014392  0.824126  0.419349  0.081764
    H   H73   0.142794  0.882094  0.409453  0.187334
    H   H74   0.074456  0.885644  0.379320  0.169403
    C   C151  0.185355  0.090422  0.458600  -0.112774
    C   C152  0.164135  0.062134  0.425395  0.011742
    C   C153  0.130154  0.095207  0.403349  -0.482461
    H   H75   0.217391  0.129178  0.452486  0.079477
    H   H76   0.145335  0.110148  0.472810  0.050264
    H   H77   0.175874  0.014392  0.419349  0.081764
    H   H78   0.117906  0.142794  0.409453  0.187336
    H   H79   0.114356  0.074456  0.379320  0.169405
    C   C154  0.909578  0.185355  0.458600  -0.112770
    C   C155  0.937866  0.164135  0.425395  0.011747
    C   C156  0.904793  0.130154  0.403349  -0.482460
    H   H80   0.870822  0.217391  0.452486  0.079473
    H   H81   0.889852  0.145335  0.472810  0.050256
    H   H82   0.985608  0.175874  0.419349  0.081763
    H   H83   0.857207  0.117906  0.409453  0.187338
    H   H84   0.925544  0.114356  0.379320  0.169402
    C   C157  0.814645  0.090422  0.541400  -0.112778
    C   C158  0.835865  0.062134  0.574605  0.011752
    C   C159  0.869846  0.095207  0.596651  -0.482470
    H   H85   0.782609  0.129178  0.547514  0.079476
    H   H86   0.854665  0.110148  0.527190  0.050265
    H   H87   0.824126  0.014392  0.580651  0.081761
    H   H88   0.882094  0.142794  0.590546  0.187336
    H   H89   0.885644  0.074456  0.620680  0.169409
    C   C160  0.090422  0.185355  0.541400  -0.112776
    C   C161  0.062134  0.164135  0.574605  0.011748
    C   C162  0.095207  0.130154  0.596651  -0.482460
    H   H90   0.129178  0.217391  0.547514  0.079478
    H   H91   0.110148  0.145335  0.527190  0.050259
    H   H92   0.014392  0.175874  0.580651  0.081762
    H   H93   0.142794  0.117906  0.590546  0.187332
    H   H94   0.074456  0.114356  0.620680  0.169407
    C   C163  0.185355  0.909578  0.541400  -0.112771
    C   C164  0.164135  0.937866  0.574605  0.011747
    C   C165  0.130154  0.904793  0.596651  -0.482462
    H   H95   0.217391  0.870822  0.547514  0.079475
    H   H96   0.145335  0.889852  0.527190  0.050264
    H   H97   0.175874  0.985608  0.580651  0.081761
    H   H98   0.117906  0.857206  0.590546  0.187334
    H   H99   0.114356  0.925544  0.620680  0.169408
    C   C166  0.909578  0.814645  0.541400  -0.112760
    C   C167  0.937866  0.835865  0.574605  0.011748
    C   C168  0.904793  0.869846  0.596651  -0.482465
    H   H100  0.870822  0.782609  0.547514  0.079473
    H   H101  0.889852  0.854665  0.527190  0.050254
    H   H102  0.985608  0.824126  0.580651  0.081761
    H   H103  0.857207  0.882094  0.590546  0.187335
    H   H104  0.925544  0.885644  0.620680  0.169406
    C   C169  0.314645  0.409578  0.958600  -0.112787
    C   C170  0.335865  0.437866  0.925395  0.011791
    C   C171  0.369846  0.404793  0.903349  -0.482475
    H   H105  0.282609  0.370822  0.952486  0.079474
    H   H106  0.354665  0.389852  0.972810  0.050251
    H   H107  0.324126  0.485608  0.919349  0.081745
    H   H108  0.382094  0.357206  0.909453  0.187346
    H   H109  0.385644  0.425544  0.879320  0.169399
    C   C172  0.590422  0.314645  0.958600  -0.112808
    C   C173  0.562134  0.335865  0.925395  0.011809
    C   C174  0.595207  0.369846  0.903349  -0.482500
    H   H110  0.629178  0.282609  0.952486  0.079480
    H   H111  0.610148  0.354665  0.972810  0.050256
    H   H112  0.514392  0.324126  0.919349  0.081746
    H   H113  0.642794  0.382094  0.909453  0.187350
    H   H114  0.574456  0.385644  0.879320  0.169403
    C   C175  0.685355  0.590422  0.958600  -0.112802
    C   C176  0.664135  0.562134  0.925395  0.011790
    C   C177  0.630154  0.595207  0.903349  -0.482474
    H   H115  0.717391  0.629178  0.952486  0.079481
    H   H116  0.645335  0.610148  0.972810  0.050256
    H   H117  0.675874  0.514392  0.919349  0.081746
    H   H118  0.617906  0.642794  0.909453  0.187345
    H   H119  0.614356  0.574456  0.879320  0.169400
    C   C178  0.409578  0.685355  0.958600  -0.112804
    C   C179  0.437866  0.664135  0.925395  0.011809
    C   C180  0.404793  0.630154  0.903349  -0.482502
    H   H120  0.370822  0.717391  0.952486  0.079478
    H   H121  0.389852  0.645335  0.972810  0.050256
    H   H122  0.485608  0.675874  0.919349  0.081747
    H   H123  0.357206  0.617906  0.909453  0.187351
    H   H124  0.425544  0.614356  0.879320  0.169403
    C   C181  0.314645  0.590422  0.041400  -0.112796
    C   C182  0.335865  0.562134  0.074605  0.011789
    C   C183  0.369846  0.595207  0.096651  -0.482469
    H   H125  0.282609  0.629178  0.047514  0.079478
    H   H126  0.354665  0.610148  0.027190  0.050253
    H   H127  0.324126  0.514392  0.080651  0.081744
    H   H128  0.382094  0.642794  0.090546  0.187341
    H   H129  0.385644  0.574456  0.120680  0.169400
    C   C184  0.590422  0.685355  0.041400  -0.112817
    C   C185  0.562134  0.664135  0.074605  0.011806
    C   C186  0.595207  0.630154  0.096651  -0.482495
    H   H130  0.629178  0.717391  0.047514  0.079484
    H   H131  0.610148  0.645335  0.027190  0.050260
    H   H132  0.514392  0.675874  0.080651  0.081746
    H   H133  0.642794  0.617906  0.090546  0.187347
    H   H134  0.574456  0.614356  0.120680  0.169405
    C   C187  0.685355  0.409578  0.041400  -0.112794
    C   C188  0.664135  0.437866  0.074605  0.011793
    C   C189  0.630154  0.404793  0.096651  -0.482473
    H   H135  0.717391  0.370822  0.047514  0.079477
    H   H136  0.645335  0.389852  0.027190  0.050254
    H   H137  0.675874  0.485608  0.080651  0.081745
    H   H138  0.617906  0.357206  0.090546  0.187343
    H   H139  0.614356  0.425544  0.120680  0.169401
    C   C190  0.409578  0.314645  0.041400  -0.112808
    C   C191  0.437866  0.335865  0.074605  0.011807
    C   C192  0.404793  0.369846  0.096651  -0.482495
    H   H140  0.370822  0.282609  0.047514  0.079480
    H   H141  0.389852  0.354665  0.027190  0.050256
    H   H142  0.485608  0.324126  0.080651  0.081746
    H   H143  0.357206  0.382094  0.090546  0.187346
    H   H144  0.425544  0.385644  0.120680  0.169404
