# Generated by REPEAT Assigner based on pymatgen
data_DB0-m2_o1_o2_f0_nbo.sym.7
_audit_creation_date              2022-05-24
_audit_creation_method            REPEAT_Assigner
_cell_length_a                    21.551034
_cell_length_b                    21.551034
_cell_length_c                    30.022915
_cell_angle_alpha                 90.000000
_cell_angle_beta                  90.000000
_cell_angle_gamma                 90.000000
_cell_volume                      13944.054643
_symmetry_space_group_name_H-M    P1
_symmetry_Int_Tables_number       1
loop_
    _symmetry_equiv_pos_site_id
    _symmetry_equiv_pos_as_xyz
    1  x,y,z
loop_
    _atom_site_type_symbol
    _atom_site_label
    _atom_site_fract_x
    _atom_site_fract_y
    _atom_site_fract_z
    _atom_type_partial_charge
    O   O1    0.088374  0.449054  0.487271  -0.482219
    O   O2    0.449054  0.911626  0.487271  -0.482243
    O   O3    0.911626  0.550946  0.487271  -0.482258
    O   O4    0.550946  0.088374  0.487271  -0.482242
    O   O5    0.088374  0.550946  0.512729  -0.482267
    O   O6    0.449054  0.088374  0.512729  -0.482254
    O   O7    0.911626  0.449054  0.512729  -0.482213
    O   O8    0.550946  0.911626  0.512729  -0.482240
    O   O9    0.588374  0.949054  0.987271  -0.482215
    O   O10   0.949054  0.411626  0.987271  -0.482217
    O   O11   0.411626  0.050946  0.987271  -0.482246
    O   O12   0.050946  0.588374  0.987271  -0.482240
    O   O13   0.588374  0.050946  0.012729  -0.482249
    O   O14   0.949054  0.588374  0.012729  -0.482212
    O   O15   0.411626  0.949054  0.012729  -0.482227
    O   O16   0.050946  0.411626  0.012729  -0.482246
    C   C1    0.117562  0.500000  0.500000  0.598623
    C   C2    0.500000  0.882439  0.500000  0.598693
    C   C3    0.882439  0.500000  0.500000  0.598623
    C   C4    0.500000  0.117561  0.500000  0.598674
    C   C5    0.617562  0.000000  0.000000  0.598621
    C   C6    0.000000  0.382439  0.000000  0.598629
    C   C7    0.382439  0.000000  0.000000  0.598627
    C   C8    0.000000  0.617561  0.000000  0.598619
    O   O17   0.982243  0.449034  0.436598  -0.586795
    O   O18   0.449034  0.017757  0.436598  -0.586841
    O   O19   0.017758  0.550966  0.436598  -0.586838
    O   O20   0.550966  0.982242  0.436598  -0.586824
    O   O21   0.982243  0.550966  0.563402  -0.586842
    O   O22   0.449034  0.982242  0.563402  -0.586841
    O   O23   0.017758  0.449034  0.563402  -0.586808
    O   O24   0.550966  0.017758  0.563402  -0.586825
    O   O25   0.482243  0.949034  0.936598  -0.586811
    O   O26   0.949034  0.517757  0.936598  -0.586814
    O   O27   0.517758  0.050966  0.936598  -0.586848
    O   O28   0.050966  0.482242  0.936598  -0.586836
    O   O29   0.482243  0.050966  0.063402  -0.586837
    O   O30   0.949034  0.482242  0.063402  -0.586799
    O   O31   0.517758  0.949034  0.063402  -0.586810
    O   O32   0.050966  0.517758  0.063402  -0.586820
    C   C9    0.282035  0.525716  0.535168  -0.336556
    C   C10   0.525717  0.717965  0.535168  -0.336570
    C   C11   0.717966  0.474283  0.535168  -0.336546
    C   C12   0.474284  0.282035  0.535168  -0.336567
    C   C13   0.282035  0.474283  0.464832  -0.336554
    C   C14   0.525717  0.282035  0.464832  -0.336575
    C   C15   0.717966  0.525716  0.464832  -0.336540
    C   C16   0.474284  0.717965  0.464832  -0.336573
    C   C17   0.782035  0.025716  0.035168  -0.336554
    C   C18   0.025717  0.217965  0.035168  -0.336563
    C   C19   0.217966  0.974283  0.035168  -0.336550
    C   C20   0.974284  0.782035  0.035168  -0.336554
    C   C21   0.782035  0.974284  0.964832  -0.336545
    C   C22   0.025717  0.782034  0.964832  -0.336556
    C   C23   0.217966  0.025716  0.964832  -0.336559
    C   C24   0.974284  0.217965  0.964832  -0.336557
    C   C25   0.000000  0.500000  0.415666  0.680657
    C   C26   0.500000  0.000000  0.415666  0.680736
    C   C27   0.000000  0.500000  0.584334  0.680676
    C   C28   0.500000  0.000000  0.584333  0.680743
    C   C29   0.500000  0.000000  0.915666  0.680685
    C   C30   0.000000  0.500000  0.915666  0.680678
    C   C31   0.500000  0.000000  0.084334  0.680695
    C   C32   0.000000  0.500000  0.084333  0.680679
    Cu  Cu1   0.000000  0.439537  0.500000  0.862065
    Cu  Cu2   0.439537  0.000000  0.500000  0.862031
    Cu  Cu3   0.000000  0.560463  0.500000  0.862030
    Cu  Cu4   0.560463  0.000000  0.500000  0.862018
    Cu  Cu5   0.500000  0.939537  0.000000  0.862035
    Cu  Cu6   0.939537  0.500000  0.000000  0.862050
    Cu  Cu7   0.500000  0.060463  0.000000  0.862005
    Cu  Cu8   0.060463  0.500000  0.000000  0.861992
    C   C33   0.185616  0.500000  0.500000  -0.208470
    C   C34   0.500000  0.814384  0.500000  -0.208549
    C   C35   0.814384  0.500000  0.500000  -0.208473
    C   C36   0.500000  0.185616  0.500000  -0.208535
    C   C37   0.685616  0.000000  0.000000  -0.208480
    C   C38   0.000000  0.314384  0.000000  -0.208496
    C   C39   0.314384  0.000000  0.000000  -0.208495
    C   C40   0.000000  0.685616  0.000000  -0.208500
    C   C41   0.218004  0.527289  0.534707  0.395147
    C   C42   0.527289  0.781996  0.534707  0.395165
    C   C43   0.781996  0.472711  0.534707  0.395135
    C   C44   0.472711  0.218004  0.534707  0.395165
    C   C45   0.218004  0.472711  0.465293  0.395143
    C   C46   0.527289  0.218004  0.465293  0.395186
    C   C47   0.781996  0.527289  0.465293  0.395163
    C   C48   0.472711  0.781996  0.465293  0.395185
    C   C49   0.718004  0.027289  0.034707  0.395145
    C   C50   0.027289  0.281996  0.034707  0.395158
    C   C51   0.281996  0.972711  0.034707  0.395150
    C   C52   0.972711  0.718004  0.034707  0.395143
    C   C53   0.718004  0.972711  0.965293  0.395143
    C   C54   0.027289  0.718004  0.965293  0.395184
    C   C55   0.281996  0.027289  0.965293  0.395180
    C   C56   0.972711  0.281996  0.965293  0.395146
    C   C57   0.022891  0.550365  0.297712  -0.156992
    C   C58   0.550365  0.977109  0.297712  -0.156993
    C   C59   0.977109  0.449635  0.297712  -0.156989
    C   C60   0.449635  0.022891  0.297712  -0.156991
    C   C61   0.022891  0.449635  0.702288  -0.156981
    C   C62   0.550365  0.022891  0.702288  -0.156984
    C   C63   0.977109  0.550365  0.702288  -0.156985
    C   C64   0.449635  0.977109  0.702288  -0.156979
    C   C65   0.522891  0.050365  0.797712  -0.156992
    C   C66   0.050365  0.477109  0.797712  -0.156985
    C   C67   0.477109  0.949635  0.797712  -0.156982
    C   C68   0.949635  0.522891  0.797712  -0.156985
    C   C69   0.522891  0.949635  0.202288  -0.156980
    C   C70   0.050365  0.522891  0.202288  -0.156979
    C   C71   0.477109  0.050365  0.202288  -0.156981
    C   C72   0.949635  0.477109  0.202288  -0.156973
    H   H1    0.039967  0.590762  0.280274  0.112592
    H   H2    0.590762  0.960033  0.280274  0.112594
    H   H3    0.960033  0.409238  0.280274  0.112589
    H   H4    0.409238  0.039967  0.280274  0.112590
    H   H5    0.039967  0.409238  0.719726  0.112589
    H   H6    0.590762  0.039967  0.719726  0.112592
    H   H7    0.960033  0.590762  0.719726  0.112589
    H   H8    0.409238  0.960033  0.719726  0.112587
    H   H9    0.539967  0.090762  0.780274  0.112593
    H   H10   0.090762  0.460033  0.780274  0.112591
    H   H11   0.460033  0.909238  0.780274  0.112592
    H   H12   0.909238  0.539967  0.780274  0.112592
    H   H13   0.539967  0.909238  0.219726  0.112589
    H   H14   0.090762  0.539967  0.219726  0.112589
    H   H15   0.460033  0.090762  0.219726  0.112591
    H   H16   0.909238  0.460033  0.219726  0.112587
    C   C73   0.022647  0.550511  0.343619  -0.095611
    C   C74   0.550511  0.977353  0.343619  -0.095588
    C   C75   0.977353  0.449489  0.343619  -0.095610
    C   C76   0.449489  0.022647  0.343619  -0.095586
    C   C77   0.022647  0.449489  0.656381  -0.095618
    C   C78   0.550511  0.022647  0.656381  -0.095602
    C   C79   0.977353  0.550511  0.656381  -0.095624
    C   C80   0.449489  0.977353  0.656381  -0.095605
    C   C81   0.522647  0.050511  0.843619  -0.095601
    C   C82   0.050511  0.477353  0.843619  -0.095607
    C   C83   0.477353  0.949489  0.843619  -0.095606
    C   C84   0.949489  0.522647  0.843619  -0.095609
    C   C85   0.522647  0.949489  0.156381  -0.095607
    C   C86   0.050511  0.522647  0.156381  -0.095613
    C   C87   0.477353  0.050511  0.156381  -0.095609
    C   C88   0.949489  0.477353  0.156381  -0.095625
    H   H17   0.040536  0.590668  0.360910  0.116183
    H   H18   0.590668  0.959464  0.360910  0.116175
    H   H19   0.959464  0.409332  0.360910  0.116184
    H   H20   0.409332  0.040536  0.360910  0.116173
    H   H21   0.040536  0.409332  0.639090  0.116188
    H   H22   0.590668  0.040536  0.639090  0.116181
    H   H23   0.959464  0.590668  0.639090  0.116190
    H   H24   0.409332  0.959464  0.639090  0.116183
    H   H25   0.540536  0.090668  0.860910  0.116181
    H   H26   0.090668  0.459464  0.860910  0.116180
    H   H27   0.459464  0.909332  0.860910  0.116177
    H   H28   0.909332  0.540536  0.860910  0.116174
    H   H29   0.540536  0.909332  0.139090  0.116181
    H   H30   0.090668  0.540536  0.139090  0.116181
    H   H31   0.459464  0.090668  0.139090  0.116182
    H   H32   0.909332  0.459464  0.139090  0.116180
    C   C89   0.000000  0.500000  0.366852  -0.008580
    C   C90   0.500000  0.000000  0.366852  -0.008650
    C   C91   0.000000  0.500000  0.633148  -0.008580
    C   C92   0.500000  0.000000  0.633148  -0.008644
    C   C93   0.500000  0.000000  0.866852  -0.008610
    C   C94   0.000000  0.500000  0.866852  -0.008615
    C   C95   0.500000  0.000000  0.133148  -0.008613
    C   C96   0.000000  0.500000  0.133148  -0.008619
    C   C97   0.000000  0.500000  0.274449  0.103511
    C   C98   0.500000  0.000000  0.274449  0.103524
    C   C99   0.000000  0.500000  0.725551  0.103510
    C   C100  0.500000  0.000000  0.725551  0.103518
    C   C101  0.500000  0.000000  0.774449  0.103517
    C   C102  0.000000  0.500000  0.774449  0.103531
    C   C103  0.500000  0.000000  0.225551  0.103514
    C   C104  0.000000  0.500000  0.225551  0.103530
    O   O33   0.482343  0.411511  0.536605  -0.600046
    O   O34   0.411511  0.517657  0.536605  -0.600037
    O   O35   0.517657  0.588489  0.536605  -0.600041
    O   O36   0.588489  0.482343  0.536605  -0.600038
    O   O37   0.482343  0.588489  0.463395  -0.600019
    O   O38   0.411511  0.482343  0.463395  -0.600040
    O   O39   0.517657  0.411511  0.463395  -0.600028
    O   O40   0.588489  0.517657  0.463395  -0.600026
    O   O41   0.982343  0.911511  0.036605  -0.600064
    O   O42   0.911511  0.017657  0.036605  -0.600064
    O   O43   0.017657  0.088489  0.036605  -0.600069
    O   O44   0.088489  0.982343  0.036605  -0.600070
    O   O45   0.982343  0.088489  0.963395  -0.600033
    O   O46   0.911511  0.982343  0.963395  -0.600021
    O   O47   0.017657  0.911511  0.963395  -0.600023
    O   O48   0.088489  0.017657  0.963395  -0.600029
    C   C105  0.500000  0.382345  0.500000  0.718720
    C   C106  0.382345  0.500000  0.500000  0.718723
    C   C107  0.500000  0.617655  0.500000  0.718694
    C   C108  0.617655  0.500000  0.500000  0.718723
    C   C109  0.000000  0.882345  0.000000  0.718756
    C   C110  0.882345  0.000000  0.000000  0.718750
    C   C111  0.000000  0.117655  0.000000  0.718736
    C   C112  0.117655  0.000000  0.000000  0.718743
    C   C113  0.314336  0.500000  0.500000  0.021620
    C   C114  0.500000  0.685664  0.500000  0.021651
    C   C115  0.685664  0.500000  0.500000  0.021601
    C   C116  0.500000  0.314336  0.500000  0.021640
    C   C117  0.814336  0.000000  0.000000  0.021615
    C   C118  0.000000  0.185664  0.000000  0.021635
    C   C119  0.185664  0.000000  0.000000  0.021611
    C   C120  0.000000  0.814336  0.000000  0.021609
    Cu  Cu9   0.500000  0.500000  0.543432  0.952140
    Cu  Cu10  0.500000  0.500000  0.456568  0.952195
    Cu  Cu11  0.000000  0.000000  0.043432  0.952070
    Cu  Cu12  0.000000  0.000000  0.956568  0.952287
    H   H33   0.306434  0.545603  0.563177  0.189486
    H   H34   0.545604  0.693567  0.563177  0.189488
    H   H35   0.693567  0.454396  0.563177  0.189482
    H   H36   0.454397  0.306433  0.563177  0.189488
    H   H37   0.306434  0.454396  0.436823  0.189490
    H   H38   0.545604  0.306433  0.436823  0.189495
    H   H39   0.693567  0.545603  0.436823  0.189479
    H   H40   0.454397  0.693566  0.436823  0.189487
    H   H41   0.806434  0.045603  0.063177  0.189484
    H   H42   0.045604  0.193566  0.063177  0.189490
    H   H43   0.193567  0.954396  0.063177  0.189487
    H   H44   0.954397  0.806434  0.063177  0.189486
    H   H45   0.806434  0.954397  0.936823  0.189488
    H   H46   0.045604  0.806433  0.936823  0.189490
    H   H47   0.193567  0.045603  0.936823  0.189491
    H   H48   0.954397  0.193566  0.936823  0.189491
    O   O49   0.186980  0.552001  0.570314  -0.353423
    C   C121  0.191690  0.616275  0.565269  0.139052
    H   H49   0.198445  0.628181  0.529653  -0.014222
    H   H50   0.231302  0.633932  0.585152  0.012369
    H   H51   0.148229  0.638339  0.577106  0.038960
    O   O50   0.552001  0.813020  0.570314  -0.353417
    C   C122  0.616275  0.808310  0.565269  0.139036
    H   H52   0.628182  0.801555  0.529652  -0.014214
    H   H53   0.633932  0.768698  0.585152  0.012371
    H   H54   0.638339  0.851771  0.577106  0.038962
    O   O51   0.813020  0.447999  0.570314  -0.353414
    C   C123  0.808310  0.383725  0.565269  0.139039
    H   H55   0.801555  0.371819  0.529652  -0.014213
    H   H56   0.768698  0.366068  0.585152  0.012371
    H   H57   0.851771  0.361661  0.577106  0.038961
    O   O52   0.447999  0.186980  0.570314  -0.353420
    C   C124  0.383725  0.191690  0.565269  0.139039
    H   H58   0.371819  0.198445  0.529652  -0.014220
    H   H59   0.366068  0.231302  0.585152  0.012372
    H   H60   0.361661  0.148229  0.577106  0.038963
    O   O53   0.186980  0.447999  0.429686  -0.353416
    C   C125  0.191690  0.383725  0.434731  0.139033
    H   H61   0.198445  0.371819  0.470348  -0.014216
    H   H62   0.231302  0.366068  0.414848  0.012373
    H   H63   0.148229  0.361661  0.422894  0.038964
    O   O54   0.552001  0.186980  0.429686  -0.353448
    C   C126  0.616275  0.191690  0.434730  0.139082
    H   H64   0.628182  0.198445  0.470347  -0.014234
    H   H65   0.633932  0.231302  0.414848  0.012361
    H   H66   0.638339  0.148229  0.422894  0.038952
    O   O55   0.813020  0.552001  0.429686  -0.353421
    C   C127  0.808310  0.616275  0.434731  0.139031
    H   H67   0.801555  0.628181  0.470348  -0.014222
    H   H68   0.768698  0.633932  0.414848  0.012375
    H   H69   0.851771  0.638339  0.422894  0.038964
    O   O56   0.447999  0.813020  0.429686  -0.353424
    C   C128  0.383725  0.808310  0.434731  0.139029
    H   H70   0.371819  0.801555  0.470348  -0.014223
    H   H71   0.366068  0.768698  0.414848  0.012374
    H   H72   0.361661  0.851771  0.422894  0.038967
    O   O57   0.686980  0.052001  0.070314  -0.353414
    C   C129  0.691690  0.116275  0.065269  0.139023
    H   H73   0.698445  0.128181  0.029652  -0.014217
    H   H74   0.731302  0.133932  0.085152  0.012376
    H   H75   0.648229  0.138339  0.077106  0.038967
    O   O58   0.052001  0.313020  0.070314  -0.353422
    C   C130  0.116275  0.308310  0.065269  0.139032
    H   H76   0.128182  0.301555  0.029652  -0.014216
    H   H77   0.133932  0.268698  0.085152  0.012372
    H   H78   0.138339  0.351771  0.077106  0.038964
    O   O59   0.313020  0.947999  0.070314  -0.353423
    C   C131  0.308310  0.883725  0.065269  0.139042
    H   H79   0.301555  0.871819  0.029652  -0.014216
    H   H80   0.268698  0.866068  0.085152  0.012370
    H   H81   0.351771  0.861661  0.077106  0.038961
    O   O60   0.947999  0.686980  0.070314  -0.353417
    C   C132  0.883725  0.691690  0.065269  0.139037
    H   H82   0.871819  0.698445  0.029652  -0.014218
    H   H83   0.866068  0.731302  0.085152  0.012372
    H   H84   0.861661  0.648229  0.077106  0.038962
    O   O61   0.686980  0.947999  0.929686  -0.353417
    C   C133  0.691690  0.883725  0.934731  0.139025
    H   H85   0.698445  0.871819  0.970348  -0.014217
    H   H86   0.731302  0.866068  0.914848  0.012377
    H   H87   0.648229  0.861661  0.922894  0.038966
    O   O62   0.052001  0.686980  0.929686  -0.353449
    C   C134  0.116275  0.691690  0.934730  0.139075
    H   H88   0.128182  0.698445  0.970347  -0.014234
    H   H89   0.133932  0.731302  0.914848  0.012364
    H   H90   0.138339  0.648229  0.922894  0.038954
    O   O63   0.313020  0.052001  0.929686  -0.353445
    C   C135  0.308310  0.116275  0.934730  0.139067
    H   H91   0.301555  0.128181  0.970347  -0.014232
    H   H92   0.268698  0.133932  0.914848  0.012369
    H   H93   0.351771  0.138339  0.922894  0.038958
    O   O64   0.947999  0.313020  0.929686  -0.353417
    C   C136  0.883725  0.308310  0.934731  0.139020
    H   H94   0.871819  0.301555  0.970348  -0.014216
    H   H95   0.866068  0.268698  0.914848  0.012377
    H   H96   0.861661  0.351771  0.922894  0.038968
