# Generated by REPEAT Assigner based on pymatgen
data_DB0-m2_o1_o3_f0_nbo.sym.29
_audit_creation_date              2022-05-24
_audit_creation_method            REPEAT_Assigner
_cell_length_a                    21.464764
_cell_length_b                    21.464764
_cell_length_c                    38.787541
_cell_angle_alpha                 90.000000
_cell_angle_beta                  90.000000
_cell_angle_gamma                 90.000000
_cell_volume                      17870.820508
_symmetry_space_group_name_H-M    P1
_symmetry_Int_Tables_number       1
loop_
    _symmetry_equiv_pos_site_id
    _symmetry_equiv_pos_as_xyz
    1  x,y,z
loop_
    _atom_site_type_symbol
    _atom_site_label
    _atom_site_fract_x
    _atom_site_fract_y
    _atom_site_fract_z
    _atom_type_partial_charge
    O   O1    0.588878  0.051514  0.490673  -0.469558
    O   O2    0.948486  0.588878  0.490673  -0.469543
    O   O3    0.411122  0.948486  0.490673  -0.469566
    O   O4    0.051514  0.411122  0.490673  -0.469535
    O   O5    0.588878  0.948486  0.509313  -0.469560
    O   O6    0.948486  0.411122  0.509313  -0.469545
    O   O7    0.411122  0.051514  0.509313  -0.469542
    O   O8    0.051514  0.588878  0.509313  -0.469532
    O   O9    0.088878  0.551514  0.990673  -0.469531
    O   O10   0.448486  0.088878  0.990673  -0.469528
    O   O11   0.911122  0.448486  0.990673  -0.469522
    O   O12   0.551514  0.911122  0.990673  -0.469520
    O   O13   0.088878  0.448486  0.009313  -0.469566
    O   O14   0.448486  0.911122  0.009313  -0.469559
    O   O15   0.911122  0.551514  0.009313  -0.469539
    O   O16   0.551514  0.088878  0.009313  -0.469552
    C   C1    0.617960  0.000000  0.499993  0.465287
    C   C2    0.000000  0.617960  0.499993  0.465158
    C   C3    0.382040  0.000000  0.499993  0.465199
    C   C4    0.000000  0.382040  0.499993  0.465210
    C   C5    0.117961  0.500000  0.999993  0.465132
    C   C6    0.500000  0.117960  0.999993  0.465134
    C   C7    0.882040  0.500000  0.999993  0.465073
    C   C8    0.500000  0.882040  0.999993  0.465110
    O   O17   0.517108  0.051306  0.549255  -0.576908
    O   O18   0.948694  0.517108  0.549255  -0.576899
    O   O19   0.482892  0.948694  0.549255  -0.576925
    O   O20   0.051307  0.482892  0.549255  -0.576885
    O   O21   0.517108  0.948694  0.450731  -0.576718
    O   O22   0.948694  0.482892  0.450731  -0.576629
    O   O23   0.482892  0.051306  0.450731  -0.576704
    O   O24   0.051307  0.517108  0.450731  -0.576673
    O   O25   0.017108  0.551306  0.049255  -0.576792
    O   O26   0.448694  0.017108  0.049255  -0.576814
    O   O27   0.982892  0.448693  0.049255  -0.576782
    O   O28   0.551307  0.982892  0.049255  -0.576819
    O   O29   0.017108  0.448694  0.950731  -0.576668
    O   O30   0.448694  0.982892  0.950731  -0.576681
    O   O31   0.982892  0.551306  0.950731  -0.576667
    O   O32   0.551307  0.017108  0.950731  -0.576677
    C   C9    0.500000  0.000000  0.565602  0.707341
    C   C10   0.000000  0.500000  0.565602  0.707368
    C   C11   0.500000  0.000000  0.434384  0.706964
    C   C12   0.000000  0.500000  0.434385  0.706865
    C   C13   0.000000  0.500000  0.065602  0.707073
    C   C14   0.500000  0.000000  0.065602  0.707119
    C   C15   0.000000  0.500000  0.934385  0.706932
    C   C16   0.500000  0.000000  0.934384  0.706920
    Cu  Cu1   0.500000  0.060894  0.499993  0.928499
    Cu  Cu2   0.939106  0.500000  0.499993  0.928551
    Cu  Cu3   0.500000  0.939106  0.499993  0.928577
    Cu  Cu4   0.060894  0.500000  0.499993  0.928440
    Cu  Cu5   0.000000  0.560894  0.999993  0.928453
    Cu  Cu6   0.439106  0.000000  0.999993  0.928489
    Cu  Cu7   0.000000  0.439106  0.999993  0.928468
    Cu  Cu8   0.560894  0.000000  0.999993  0.928496
    C   C17   0.553434  0.983758  0.877980  -0.004851
    C   C18   0.016241  0.553434  0.877980  -0.004865
    C   C19   0.446566  0.016242  0.877980  -0.004815
    C   C20   0.983759  0.446566  0.877980  -0.004850
    C   C21   0.553434  0.016241  0.122006  -0.004893
    C   C22   0.016241  0.446566  0.122006  -0.004858
    C   C23   0.446566  0.983759  0.122006  -0.004879
    C   C24   0.983759  0.553434  0.122006  -0.004951
    C   C25   0.053434  0.483758  0.377980  -0.004839
    C   C26   0.516241  0.053434  0.377980  -0.004698
    C   C27   0.946566  0.516242  0.377980  -0.004827
    C   C28   0.483759  0.946566  0.377980  -0.004674
    C   C29   0.053434  0.516242  0.622006  -0.004766
    C   C30   0.516242  0.946566  0.622006  -0.004806
    C   C31   0.946566  0.483758  0.622006  -0.004679
    C   C32   0.483759  0.053434  0.622006  -0.004835
    C   C33   0.553431  0.985629  0.842394  -0.160050
    C   C34   0.014371  0.553431  0.842394  -0.160054
    C   C35   0.446569  0.014371  0.842394  -0.160075
    C   C36   0.985629  0.446569  0.842394  -0.160068
    C   C37   0.553431  0.014371  0.157593  -0.159860
    C   C38   0.014371  0.446569  0.157593  -0.159891
    C   C39   0.446569  0.985628  0.157593  -0.159877
    C   C40   0.985629  0.553431  0.157593  -0.159841
    C   C41   0.053431  0.485629  0.342394  -0.160083
    C   C42   0.514370  0.053431  0.342393  -0.160324
    C   C43   0.946569  0.514371  0.342394  -0.160097
    C   C44   0.485630  0.946569  0.342393  -0.160348
    C   C45   0.053431  0.514371  0.657593  -0.159868
    C   C46   0.514371  0.946569  0.657593  -0.159897
    C   C47   0.946569  0.485629  0.657593  -0.159886
    C   C48   0.485629  0.053431  0.657593  -0.159873
    H   H1    0.596009  0.974344  0.829034  0.102516
    H   H2    0.025655  0.596009  0.829034  0.102520
    H   H3    0.403991  0.025656  0.829034  0.102525
    H   H4    0.974345  0.403991  0.829034  0.102525
    H   H5    0.596009  0.025656  0.170953  0.102535
    H   H6    0.025655  0.403991  0.170953  0.102553
    H   H7    0.403991  0.974344  0.170953  0.102542
    H   H8    0.974345  0.596009  0.170953  0.102535
    H   H9    0.096010  0.474344  0.329034  0.102528
    H   H10   0.525653  0.096010  0.329034  0.102569
    H   H11   0.903991  0.525656  0.329034  0.102539
    H   H12   0.474347  0.903990  0.329034  0.102575
    H   H13   0.096010  0.525655  0.670952  0.102532
    H   H14   0.525656  0.903991  0.670952  0.102547
    H   H15   0.903991  0.474345  0.670952  0.102537
    H   H16   0.474345  0.096009  0.670952  0.102540
    C   C49   0.500000  0.000000  0.824191  0.070441
    C   C50   0.000000  0.500000  0.824191  0.070468
    C   C51   0.500000  0.000000  0.175795  0.069827
    C   C52   0.000000  0.500000  0.175795  0.069866
    C   C53   0.000000  0.500000  0.324191  0.070489
    C   C54   0.500000  0.000000  0.324191  0.070790
    C   C55   0.000000  0.500000  0.675795  0.069826
    C   C56   0.500000  0.000000  0.675795  0.069880
    C   C57   0.500000  0.000000  0.896292  -0.160869
    C   C58   0.000000  0.500000  0.896292  -0.160850
    C   C59   0.500000  0.000000  0.103694  -0.160418
    C   C60   0.000000  0.500000  0.103694  -0.160342
    C   C61   0.000000  0.500000  0.396292  -0.160857
    C   C62   0.500000  0.000000  0.396292  -0.160993
    C   C63   0.000000  0.500000  0.603694  -0.160695
    C   C64   0.500000  0.000000  0.603694  -0.160598
    C   C65   0.461285  0.039609  0.767755  -0.133840
    C   C66   0.960391  0.461285  0.767755  -0.133813
    C   C67   0.538715  0.960391  0.767755  -0.133845
    C   C68   0.039609  0.538715  0.767755  -0.133805
    C   C69   0.461289  0.960387  0.232231  -0.135062
    C   C70   0.960391  0.538715  0.232232  -0.134834
    C   C71   0.538711  0.039613  0.232231  -0.135059
    C   C72   0.039609  0.461285  0.232232  -0.134842
    C   C73   0.961285  0.539609  0.267755  -0.133819
    C   C74   0.460394  0.961282  0.267754  -0.133671
    C   C75   0.038715  0.460391  0.267755  -0.133813
    C   C76   0.539606  0.038718  0.267754  -0.133663
    C   C77   0.961285  0.460391  0.732232  -0.134853
    C   C78   0.460391  0.038715  0.732232  -0.134804
    C   C79   0.038715  0.539609  0.732232  -0.134847
    C   C80   0.539609  0.961285  0.732232  -0.134803
    H   H17   0.431440  0.072593  0.780713  0.114077
    H   H18   0.927407  0.431441  0.780714  0.114067
    H   H19   0.568560  0.927407  0.780713  0.114079
    H   H20   0.072593  0.568559  0.780714  0.114064
    H   H21   0.431446  0.927401  0.219272  0.114271
    H   H22   0.927407  0.568559  0.219273  0.114221
    H   H23   0.568554  0.072599  0.219272  0.114269
    H   H24   0.072593  0.431440  0.219273  0.114227
    H   H25   0.931440  0.572593  0.280714  0.114065
    H   H26   0.427412  0.931434  0.280713  0.114045
    H   H27   0.068560  0.427407  0.280714  0.114062
    H   H28   0.572588  0.068566  0.280713  0.114041
    H   H29   0.931440  0.427407  0.719273  0.114226
    H   H30   0.427407  0.068559  0.719273  0.114212
    H   H31   0.068560  0.572593  0.719273  0.114222
    H   H32   0.572593  0.931440  0.719273  0.114210
    C   C81   0.500000  0.000000  0.713943  0.076295
    C   C82   0.000000  0.500000  0.713943  0.076368
    C   C83   0.500000  0.000000  0.286043  0.075007
    C   C84   0.000000  0.500000  0.286044  0.075142
    C   C85   0.000000  0.500000  0.213943  0.076333
    C   C86   0.500000  0.000000  0.213942  0.076556
    C   C87   0.000000  0.500000  0.786044  0.075135
    C   C88   0.500000  0.000000  0.786043  0.075178
    C   C89   0.718107  0.948582  0.488234  -0.134245
    C   C90   0.051418  0.718107  0.488234  -0.134338
    C   C91   0.281893  0.051418  0.488234  -0.134337
    C   C92   0.948582  0.281893  0.488234  -0.134249
    C   C93   0.718107  0.051418  0.511752  -0.134681
    C   C94   0.051418  0.281893  0.511752  -0.134703
    C   C95   0.281893  0.948582  0.511752  -0.134972
    C   C96   0.948582  0.718107  0.511752  -0.134995
    C   C97   0.218107  0.448582  0.988234  -0.134308
    C   C98   0.551418  0.218107  0.988234  -0.134303
    C   C99   0.781893  0.551418  0.988234  -0.134311
    C   C100  0.448582  0.781893  0.988234  -0.134306
    C   C101  0.218107  0.551419  0.011752  -0.134734
    C   C102  0.551419  0.781893  0.011752  -0.134734
    C   C103  0.781893  0.448581  0.011752  -0.134756
    C   C104  0.448582  0.218107  0.011752  -0.134736
    H   H33   0.693184  0.908315  0.478759  0.106802
    H   H34   0.091685  0.693184  0.478759  0.106816
    H   H35   0.306816  0.091685  0.478759  0.106815
    H   H36   0.908315  0.306816  0.478759  0.106801
    H   H37   0.693184  0.091685  0.521227  0.106981
    H   H38   0.091685  0.306816  0.521227  0.106986
    H   H39   0.306816  0.908315  0.521227  0.107101
    H   H40   0.908315  0.693184  0.521227  0.107105
    H   H41   0.193184  0.408315  0.978759  0.106832
    H   H42   0.591685  0.193184  0.978759  0.106828
    H   H43   0.806816  0.591685  0.978759  0.106829
    H   H44   0.408315  0.806816  0.978759  0.106831
    H   H45   0.193184  0.591685  0.021227  0.107004
    H   H46   0.591685  0.806816  0.021227  0.107001
    H   H47   0.806816  0.408315  0.021227  0.107007
    H   H48   0.408315  0.193184  0.021227  0.106999
    C   C105  0.782303  0.949285  0.487342  -0.067746
    C   C106  0.050715  0.782303  0.487342  -0.067685
    C   C107  0.217697  0.050715  0.487342  -0.067682
    C   C108  0.949285  0.217697  0.487342  -0.067748
    C   C109  0.782303  0.050715  0.512645  -0.067562
    C   C110  0.050715  0.217697  0.512645  -0.067544
    C   C111  0.217697  0.949285  0.512645  -0.067407
    C   C112  0.949285  0.782303  0.512645  -0.067396
    C   C113  0.282303  0.449286  0.987342  -0.067755
    C   C114  0.550714  0.282303  0.987342  -0.067759
    C   C115  0.717697  0.550714  0.987342  -0.067770
    C   C116  0.449286  0.717697  0.987342  -0.067768
    C   C117  0.282303  0.550715  0.012644  -0.067579
    C   C118  0.550715  0.717697  0.012644  -0.067575
    C   C119  0.717697  0.449285  0.012644  -0.067572
    C   C120  0.449285  0.282303  0.012644  -0.067582
    H   H49   0.807306  0.909250  0.477626  0.112998
    H   H50   0.090750  0.807306  0.477626  0.112992
    H   H51   0.192694  0.090750  0.477626  0.112992
    H   H52   0.909250  0.192694  0.477626  0.113003
    H   H53   0.807306  0.090750  0.522362  0.112949
    H   H54   0.090750  0.192694  0.522362  0.112948
    H   H55   0.192694  0.909250  0.522362  0.112911
    H   H56   0.909250  0.807306  0.522362  0.112909
    H   H57   0.307306  0.409250  0.977625  0.113001
    H   H58   0.590750  0.307306  0.977625  0.112998
    H   H59   0.692694  0.590750  0.977625  0.113006
    H   H60   0.409250  0.692694  0.977625  0.113007
    H   H61   0.307306  0.590751  0.022361  0.112956
    H   H62   0.590751  0.692694  0.022361  0.112951
    H   H63   0.692694  0.409249  0.022361  0.112957
    H   H64   0.409249  0.307306  0.022361  0.112955
    C   C121  0.814457  0.000000  0.499994  -0.117925
    C   C122  0.000000  0.814457  0.499994  -0.117991
    C   C123  0.185543  0.000000  0.499994  -0.118008
    C   C124  0.000000  0.185543  0.499994  -0.117958
    C   C125  0.314457  0.500000  0.999993  -0.117886
    C   C126  0.500000  0.314457  0.999993  -0.117879
    C   C127  0.685543  0.499999  0.999993  -0.117883
    C   C128  0.500001  0.685543  0.999993  -0.117886
    C   C129  0.685918  0.000000  0.499993  0.125336
    C   C130  0.000000  0.685918  0.499993  0.125565
    C   C131  0.314082  0.000000  0.499993  0.125549
    C   C132  0.000000  0.314082  0.499993  0.125392
    C   C133  0.185918  0.500000  0.999993  0.125509
    C   C134  0.500000  0.185918  0.999993  0.125502
    C   C135  0.814082  0.500000  0.999993  0.125549
    C   C136  0.500000  0.814082  0.999993  0.125511
    O   O33   0.980400  0.088537  0.471941  -0.652311
    O   O34   0.911463  0.980400  0.471941  -0.652318
    O   O35   0.019600  0.911463  0.471941  -0.652316
    O   O36   0.088537  0.019600  0.471941  -0.652311
    O   O37   0.980400  0.911463  0.528046  -0.652240
    O   O38   0.911463  0.019600  0.528046  -0.652239
    O   O39   0.019600  0.088537  0.528046  -0.652236
    O   O40   0.088537  0.980400  0.528046  -0.652229
    O   O41   0.480401  0.588537  0.971940  -0.652276
    O   O42   0.411463  0.480401  0.971940  -0.652263
    O   O43   0.519599  0.411463  0.971940  -0.652269
    O   O44   0.588537  0.519599  0.971940  -0.652269
    O   O45   0.480400  0.411463  0.028046  -0.652173
    O   O46   0.411464  0.519600  0.028046  -0.652175
    O   O47   0.519600  0.588536  0.028046  -0.652176
    O   O48   0.588537  0.480400  0.028046  -0.652181
    C   C137  0.000000  0.117621  0.499994  0.831185
    C   C138  0.882379  0.000000  0.499994  0.831155
    C   C139  0.000000  0.882379  0.499994  0.831160
    C   C140  0.117621  0.000000  0.499994  0.831178
    C   C141  0.500001  0.617621  0.999993  0.831076
    C   C142  0.382379  0.500000  0.999993  0.831061
    C   C143  0.500000  0.382379  0.999993  0.831063
    C   C144  0.617621  0.500000  0.999993  0.831073
    Cu  Cu9   0.000000  0.000000  0.466580  1.001951
    Cu  Cu10  0.000000  0.000000  0.533408  1.001741
    Cu  Cu11  0.500000  0.500000  0.966579  1.001875
    Cu  Cu12  0.500000  0.500000  0.033407  1.001687
    C   C145  0.609561  0.959795  0.895198  0.641278
    O   O49   0.605319  0.917228  0.915897  -0.513086
    C   C146  0.672399  0.984886  0.886408  -0.437308
    H   H65   0.668139  0.025456  0.868874  0.086624
    H   H66   0.700466  0.947921  0.873855  0.131469
    H   H67   0.696002  0.000086  0.910406  0.141679
    C   C147  0.040205  0.609561  0.895198  0.641273
    O   O50   0.082771  0.605320  0.915897  -0.513077
    C   C148  0.015114  0.672399  0.886407  -0.437305
    H   H68   0.974544  0.668139  0.868873  0.086628
    H   H69   0.052079  0.700466  0.873854  0.131464
    H   H70   0.999914  0.696003  0.910405  0.141675
    C   C149  0.390439  0.040205  0.895198  0.641248
    O   O51   0.394681  0.082772  0.915897  -0.513075
    C   C150  0.327601  0.015114  0.886408  -0.437319
    H   H71   0.331861  0.974544  0.868874  0.086630
    H   H72   0.299534  0.052079  0.873855  0.131475
    H   H73   0.303998  0.999914  0.910406  0.141682
    C   C151  0.959795  0.390439  0.895198  0.641275
    O   O52   0.917229  0.394680  0.915897  -0.513082
    C   C152  0.984886  0.327601  0.886407  -0.437320
    H   H74   0.025456  0.331861  0.868873  0.086629
    H   H75   0.947921  0.299534  0.873854  0.131471
    H   H76   0.000086  0.303997  0.910405  0.141679
    C   C153  0.609562  0.040203  0.104788  0.640879
    O   O53   0.605322  0.082770  0.084090  -0.512989
    C   C154  0.672399  0.015110  0.113579  -0.437179
    H   H77   0.668137  0.974540  0.131112  0.086601
    H   H78   0.700467  0.052074  0.126132  0.131507
    H   H79   0.696002  0.999910  0.089581  0.141636
    C   C155  0.040205  0.390439  0.104788  0.640739
    O   O54   0.082771  0.394680  0.084089  -0.512935
    C   C156  0.015114  0.327601  0.113579  -0.437166
    H   H80   0.974544  0.331861  0.131113  0.086602
    H   H81   0.052080  0.299534  0.126133  0.131510
    H   H82   0.999914  0.303997  0.089582  0.141650
    C   C157  0.390438  0.959797  0.104788  0.640886
    O   O55   0.394678  0.917230  0.084090  -0.512997
    C   C158  0.327601  0.984890  0.113579  -0.437200
    H   H83   0.331863  0.025460  0.131112  0.086604
    H   H84   0.299533  0.947926  0.126132  0.131516
    H   H85   0.303998  0.000090  0.089581  0.141640
    C   C159  0.959795  0.609561  0.104788  0.640883
    O   O56   0.917229  0.605320  0.084089  -0.512991
    C   C160  0.984886  0.672399  0.113579  -0.437172
    H   H86   0.025456  0.668139  0.131113  0.086592
    H   H87   0.947921  0.700466  0.126133  0.131504
    H   H88   0.000086  0.696003  0.089582  0.141641
    C   C161  0.109561  0.459794  0.395198  0.641285
    O   O57   0.105319  0.417227  0.415896  -0.513084
    C   C162  0.172399  0.484886  0.386409  -0.437304
    H   H89   0.168139  0.525457  0.368875  0.086615
    H   H90   0.200466  0.447922  0.373855  0.131465
    H   H91   0.196001  0.500085  0.410407  0.141682
    C   C163  0.540205  0.109561  0.395198  0.641232
    O   O58   0.582771  0.105319  0.415897  -0.513065
    C   C164  0.515115  0.172400  0.386407  -0.437300
    H   H92   0.474546  0.168140  0.368873  0.086627
    H   H93   0.552081  0.200465  0.373853  0.131468
    H   H94   0.499916  0.196004  0.410404  0.141675
    C   C165  0.890439  0.540206  0.395198  0.641191
    O   O59   0.894681  0.582773  0.415896  -0.513014
    C   C166  0.827601  0.515114  0.386409  -0.437292
    H   H95   0.831861  0.474543  0.368875  0.086628
    H   H96   0.799534  0.552078  0.373855  0.131461
    H   H97   0.803999  0.499915  0.410407  0.141672
    C   C167  0.459795  0.890439  0.395198  0.641235
    O   O60   0.417229  0.894681  0.415897  -0.513065
    C   C168  0.484885  0.827600  0.386407  -0.437322
    H   H98   0.525455  0.831860  0.368873  0.086631
    H   H99   0.447919  0.799535  0.373853  0.131475
    H   H100  0.500084  0.803996  0.410404  0.141679
    C   C169  0.109561  0.540205  0.604788  0.640780
    O   O61   0.105320  0.582773  0.584090  -0.512997
    C   C170  0.172399  0.515112  0.613578  -0.437043
    H   H101  0.168138  0.474542  0.631111  0.086573
    H   H102  0.200467  0.552077  0.626131  0.131486
    H   H103  0.196001  0.499913  0.589579  0.141590
    C   C171  0.540205  0.890439  0.604788  0.640865
    O   O62   0.582772  0.894681  0.584090  -0.513012
    C   C172  0.515113  0.827601  0.613578  -0.437180
    H   H104  0.474543  0.831861  0.631112  0.086591
    H   H105  0.552078  0.799534  0.626132  0.131511
    H   H106  0.499914  0.803998  0.589580  0.141642
    C   C173  0.890439  0.459795  0.604788  0.640655
    O   O63   0.894681  0.417227  0.584090  -0.512976
    C   C174  0.827602  0.484888  0.613578  -0.436863
    H   H107  0.831862  0.525458  0.631111  0.086522
    H   H108  0.799533  0.447923  0.626131  0.131448
    H   H109  0.803999  0.500087  0.589579  0.141560
    C   C175  0.459795  0.109561  0.604788  0.640888
    O   O64   0.417228  0.105319  0.584090  -0.513019
    C   C176  0.484887  0.172399  0.613578  -0.437188
    H   H110  0.525457  0.168139  0.631112  0.086592
    H   H111  0.447922  0.200466  0.626132  0.131512
    H   H112  0.500086  0.196002  0.589580  0.141645
