# Generated by REPEAT Assigner based on pymatgen
data_DB0-m2_o1_o3_f0_nbo.sym.52
_audit_creation_date              2022-05-24
_audit_creation_method            REPEAT_Assigner
_cell_length_a                    21.467988
_cell_length_b                    21.467657
_cell_length_c                    38.445417
_cell_angle_alpha                 90.000000
_cell_angle_beta                  90.000000
_cell_angle_gamma                 90.000000
_cell_volume                      17718.240210
_symmetry_space_group_name_H-M    P1
_symmetry_Int_Tables_number       1
loop_
    _symmetry_equiv_pos_site_id
    _symmetry_equiv_pos_as_xyz
    1  x,y,z
loop_
    _atom_site_type_symbol
    _atom_site_label
    _atom_site_fract_x
    _atom_site_fract_y
    _atom_site_fract_z
    _atom_type_partial_charge
    O   O1    0.588612  0.051645  0.490950  -0.614664
    O   O2    0.948954  0.588856  0.490645  -0.618434
    O   O3    0.410573  0.948190  0.491164  -0.617239
    O   O4    0.052406  0.410817  0.491471  -0.617486
    O   O5    0.588614  0.948306  0.509047  -0.614590
    O   O6    0.948956  0.411090  0.509352  -0.618773
    O   O7    0.410570  0.051752  0.508832  -0.617330
    O   O8    0.052406  0.589130  0.508523  -0.617370
    O   O9    0.088604  0.551649  0.990952  -0.614476
    O   O10   0.448946  0.088862  0.990650  -0.618347
    O   O11   0.910562  0.448198  0.991161  -0.617284
    O   O12   0.552395  0.910821  0.991470  -0.617509
    O   O13   0.088604  0.448308  0.009045  -0.614530
    O   O14   0.448946  0.911094  0.009350  -0.618683
    O   O15   0.910562  0.551759  0.008832  -0.617317
    O   O16   0.552398  0.089133  0.008527  -0.617335
    C   C1    0.617660  0.999976  0.499998  0.595022
    C   C2    0.000657  0.618042  0.499468  0.596350
    C   C3    0.381520  0.999971  0.499998  0.589302
    C   C4    0.000658  0.381904  0.500527  0.597595
    C   C5    0.117651  0.499979  0.999999  0.594839
    C   C6    0.500649  0.118047  0.999473  0.596255
    C   C7    0.881511  0.499978  0.999997  0.589316
    C   C8    0.500648  0.881909  0.000525  0.597523
    O   O17   0.515744  0.051925  0.549685  -0.650716
    O   O18   0.949109  0.516899  0.549714  -0.647845
    O   O19   0.483378  0.948760  0.549891  -0.646046
    O   O20   0.052274  0.484537  0.549859  -0.647334
    O   O21   0.515748  0.948022  0.450312  -0.650107
    O   O22   0.949104  0.483047  0.450283  -0.647713
    O   O23   0.483376  0.051186  0.450105  -0.646013
    O   O24   0.052269  0.515410  0.450135  -0.647429
    O   O25   0.015735  0.551925  0.049686  -0.650407
    O   O26   0.449100  0.016899  0.049716  -0.648077
    O   O27   0.983367  0.448760  0.049889  -0.646136
    O   O28   0.552265  0.984536  0.049860  -0.647353
    O   O29   0.015738  0.448032  0.950309  -0.650321
    O   O30   0.449094  0.983057  0.950284  -0.648031
    O   O31   0.983370  0.551197  0.950106  -0.646041
    O   O32   0.552259  0.015419  0.950137  -0.647486
    C   C9    0.499331  0.000518  0.566178  0.844176
    C   C10   0.000712  0.500988  0.566177  0.841878
    C   C11   0.499333  0.999429  0.433819  0.843654
    C   C12   0.000705  0.498959  0.433818  0.840967
    C   C13   0.999322  0.500516  0.066178  0.843978
    C   C14   0.500703  0.000986  0.066179  0.841937
    C   C15   0.999326  0.499441  0.933818  0.843805
    C   C16   0.500695  0.998970  0.933820  0.841919
    Cu  Cu1   0.499589  0.061027  0.499869  0.987965
    Cu  Cu2   0.939632  0.499973  0.499999  0.993159
    Cu  Cu3   0.499592  0.938919  0.500127  0.987605
    Cu  Cu4   0.061739  0.499973  0.499997  0.985190
    Cu  Cu5   0.999581  0.561033  0.999871  0.987639
    Cu  Cu6   0.439622  0.999978  0.000000  0.993243
    Cu  Cu7   0.999582  0.438925  0.000124  0.987699
    Cu  Cu8   0.561730  0.999977  0.999998  0.985172
    C   C17   0.534674  0.042495  0.877337  0.369764
    C   C18   0.953499  0.532343  0.877643  0.343128
    C   C19   0.467297  0.953333  0.877660  0.345251
    C   C20   0.042746  0.465079  0.877360  0.374459
    C   C21   0.534681  0.957459  0.122660  0.369514
    C   C22   0.953497  0.467606  0.122352  0.343836
    C   C23   0.467321  0.046633  0.122338  0.344011
    C   C24   0.042733  0.534885  0.122637  0.374604
    C   C25   0.034680  0.542482  0.377335  0.368150
    C   C26   0.453487  0.032304  0.377645  0.343834
    C   C27   0.967312  0.453313  0.377660  0.342890
    C   C28   0.542764  0.965081  0.377362  0.375717
    C   C29   0.034688  0.457465  0.622661  0.369216
    C   C30   0.453505  0.967614  0.622354  0.343194
    C   C31   0.967329  0.546641  0.622335  0.343697
    C   C32   0.542740  0.034895  0.622637  0.374447
    C   C33   0.535285  0.041086  0.841414  -0.330367
    C   C34   0.952777  0.531161  0.841721  -0.242930
    C   C35   0.468331  0.952686  0.841730  -0.246819
    C   C36   0.041267  0.464326  0.841432  -0.323557
    C   C37   0.535294  0.958869  0.158584  -0.330020
    C   C38   0.952773  0.468787  0.158273  -0.245339
    C   C39   0.468355  0.047280  0.158268  -0.245939
    C   C40   0.041253  0.535637  0.158565  -0.324565
    C   C41   0.035289  0.541071  0.341411  -0.328710
    C   C42   0.452764  0.031121  0.341724  -0.243297
    C   C43   0.968343  0.452665  0.341731  -0.244407
    C   C44   0.541285  0.964325  0.341434  -0.324392
    C   C45   0.035299  0.458878  0.658584  -0.328955
    C   C46   0.452780  0.968799  0.658275  -0.243197
    C   C47   0.968363  0.547291  0.658265  -0.244921
    C   C48   0.541259  0.035651  0.658565  -0.323449
    H   H1    0.560501  0.075913  0.826784  0.169221
    H   H2    0.918444  0.557506  0.827370  0.146123
    H   H3    0.441881  0.918422  0.827388  0.145582
    H   H4    0.076096  0.439096  0.826811  0.167225
    H   H5    0.560505  0.924037  0.173213  0.169133
    H   H6    0.918444  0.442438  0.172625  0.146430
    H   H7    0.441909  0.081547  0.172610  0.145244
    H   H8    0.076076  0.560872  0.173186  0.167198
    H   H9    0.060500  0.575900  0.326781  0.169018
    H   H10   0.418419  0.057450  0.327372  0.146128
    H   H11   0.941895  0.418397  0.327390  0.145256
    H   H12   0.576125  0.939111  0.326813  0.167461
    H   H13   0.060508  0.424047  0.673215  0.168905
    H   H14   0.418450  0.942452  0.672627  0.146104
    H   H15   0.941918  0.581562  0.672606  0.145144
    H   H16   0.576082  0.060887  0.673186  0.167179
    C   C49   0.503577  0.995326  0.823720  0.113297
    C   C50   0.995443  0.495939  0.823726  0.096554
    C   C51   0.503594  0.004633  0.176278  0.112966
    C   C52   0.995433  0.504017  0.176269  0.099927
    C   C53   0.003584  0.495308  0.323719  0.110313
    C   C54   0.495446  0.995917  0.323728  0.096866
    C   C55   0.003600  0.504645  0.676277  0.111391
    C   C56   0.495439  0.004032  0.676270  0.097305
    C   C57   0.500935  0.998168  0.895620  -0.473135
    C   C58   0.998443  0.498877  0.895621  -0.475439
    C   C59   0.500949  0.001791  0.104378  -0.472516
    C   C60   0.998437  0.501080  0.104375  -0.475774
    C   C61   0.000946  0.498153  0.395619  -0.470611
    C   C62   0.498447  0.998860  0.395622  -0.476203
    C   C63   0.000957  0.501797  0.604377  -0.472241
    C   C64   0.498445  0.001087  0.604375  -0.475592
    C   C65   0.461856  0.037384  0.770226  0.134003
    C   C66   0.958245  0.458684  0.765773  -0.087506
    C   C67   0.540927  0.958236  0.765767  -0.068324
    C   C68   0.037260  0.537886  0.770234  0.118287
    C   C69   0.461882  0.962560  0.229770  0.134890
    C   C70   0.958231  0.541268  0.234222  -0.084205
    C   C71   0.540930  0.041730  0.234233  -0.068883
    C   C72   0.037247  0.462069  0.229762  0.117876
    C   C73   0.961854  0.537362  0.270226  0.132650
    C   C74   0.458259  0.958652  0.265775  -0.086167
    C   C75   0.040931  0.458220  0.265764  -0.068106
    C   C76   0.537249  0.037878  0.270236  0.118544
    C   C77   0.961870  0.462590  0.729769  0.135855
    C   C78   0.458237  0.041290  0.734222  -0.085127
    C   C79   0.040944  0.541734  0.734231  -0.068251
    C   C80   0.537248  0.962085  0.729764  0.119309
    C   C81   0.496110  0.002785  0.714237  -0.087921
    C   C82   0.002381  0.503921  0.714245  -0.107833
    C   C83   0.496120  0.997167  0.285761  -0.086598
    C   C84   0.002366  0.496032  0.285751  -0.106235
    C   C85   0.996106  0.502767  0.214236  -0.087993
    C   C86   0.502378  0.003905  0.214246  -0.107704
    C   C87   0.996118  0.497188  0.785759  -0.086272
    C   C88   0.502363  0.996051  0.785752  -0.107288
    C   C89   0.717697  0.949920  0.486453  -0.197816
    C   C90   0.050749  0.718297  0.486331  -0.197661
    C   C91   0.281476  0.050807  0.487387  -0.203607
    C   C92   0.949822  0.282077  0.487535  -0.197295
    C   C93   0.717698  0.050033  0.513540  -0.197648
    C   C94   0.050750  0.281649  0.513663  -0.197781
    C   C95   0.281476  0.949133  0.512605  -0.203657
    C   C96   0.949819  0.717869  0.512458  -0.197152
    C   C97   0.217688  0.449921  0.986456  -0.197764
    C   C98   0.550741  0.218302  0.986336  -0.197687
    C   C99   0.781467  0.550816  0.987389  -0.203466
    C   C100  0.449811  0.782081  0.987533  -0.197006
    C   C101  0.217688  0.550035  0.013543  -0.197555
    C   C102  0.550740  0.781654  0.013662  -0.197521
    C   C103  0.781467  0.449140  0.012605  -0.203577
    C   C104  0.449814  0.217874  0.012466  -0.197187
    H   H17   0.692711  0.910783  0.475574  0.150257
    H   H18   0.090319  0.693497  0.475815  0.149073
    H   H19   0.306423  0.090584  0.477230  0.147953
    H   H20   0.910450  0.307209  0.477035  0.148013
    H   H21   0.692713  0.089170  0.524421  0.150163
    H   H22   0.090320  0.306448  0.524181  0.148979
    H   H23   0.306422  0.909355  0.522762  0.147951
    H   H24   0.910447  0.692737  0.522959  0.148009
    H   H25   0.192703  0.410785  0.975576  0.150256
    H   H26   0.590310  0.193502  0.975819  0.149027
    H   H27   0.806413  0.590594  0.977233  0.147878
    H   H28   0.410438  0.807213  0.977033  0.147952
    H   H29   0.192703  0.589172  0.024423  0.150127
    H   H30   0.590309  0.806454  0.024179  0.148986
    H   H31   0.806414  0.409362  0.022761  0.147950
    H   H32   0.410442  0.192743  0.022967  0.147937
    C   C105  0.781875  0.950721  0.485554  -0.044757
    C   C106  0.049709  0.782479  0.485464  -0.045954
    C   C107  0.217307  0.050042  0.486462  -0.040459
    C   C108  0.950349  0.217911  0.486577  -0.044382
    C   C109  0.781876  0.049231  0.514438  -0.044910
    C   C110  0.049711  0.217467  0.514529  -0.044474
    C   C111  0.217307  0.949897  0.513529  -0.040509
    C   C112  0.950346  0.782035  0.513415  -0.045426
    C   C113  0.281866  0.450723  0.985558  -0.044761
    C   C114  0.549702  0.282484  0.985469  -0.045528
    C   C115  0.717298  0.550052  0.986466  -0.040949
    C   C116  0.450338  0.717915  0.986577  -0.045031
    C   C117  0.281866  0.549233  0.014442  -0.044944
    C   C118  0.549701  0.717472  0.014529  -0.045164
    C   C119  0.717298  0.449904  0.013530  -0.040987
    C   C120  0.450341  0.282040  0.013423  -0.045071
    H   H33   0.806809  0.911787  0.474419  0.097872
    H   H34   0.088879  0.807609  0.474729  0.098055
    H   H35   0.192348  0.089592  0.476042  0.097045
    H   H36   0.911008  0.193144  0.475776  0.098121
    H   H37   0.806811  0.088166  0.525574  0.097908
    H   H38   0.088881  0.192337  0.525264  0.097634
    H   H39   0.192347  0.910347  0.523948  0.097079
    H   H40   0.911004  0.806802  0.524216  0.098353
    H   H41   0.306801  0.411788  0.974423  0.097840
    H   H42   0.588871  0.307613  0.974733  0.097928
    H   H43   0.692337  0.589603  0.976048  0.097147
    H   H44   0.410996  0.693148  0.975776  0.098277
    H   H45   0.306801  0.588167  0.025577  0.097918
    H   H46   0.588870  0.692343  0.025265  0.097834
    H   H47   0.692338  0.410353  0.023949  0.097192
    H   H48   0.410999  0.306807  0.024224  0.098308
    C   C121  0.814048  0.999976  0.499996  -0.127324
    C   C122  0.999907  0.814420  0.499476  -0.127881
    C   C123  0.185155  0.999970  0.499995  -0.133713
    C   C124  0.999910  0.185526  0.500516  -0.129939
    C   C125  0.314040  0.499977  0.000000  -0.127318
    C   C126  0.499901  0.314425  0.999483  -0.128534
    C   C127  0.685146  0.499978  0.999998  -0.132523
    C   C128  0.499899  0.685531  0.000516  -0.128962
    C   C129  0.685555  0.999976  0.499997  0.134242
    C   C130  0.000424  0.685937  0.499400  0.138606
    C   C131  0.313624  0.999970  0.499996  0.151223
    C   C132  0.000426  0.314009  0.500594  0.137745
    C   C133  0.185546  0.499979  0.999999  0.134175
    C   C134  0.500417  0.185942  0.999406  0.138573
    C   C135  0.813615  0.499978  0.999997  0.151257
    C   C136  0.500415  0.814013  0.000592  0.137554
    O   O33   0.980089  0.088797  0.471967  -0.656879
    O   O34   0.911088  0.980715  0.471625  -0.656235
    O   O35   0.019181  0.911727  0.471406  -0.656827
    O   O36   0.088158  0.019807  0.471748  -0.657210
    O   O37   0.980086  0.911150  0.528024  -0.656754
    O   O38   0.911089  0.019234  0.528366  -0.656258
    O   O39   0.019184  0.088218  0.528585  -0.656934
    O   O40   0.088158  0.980136  0.528242  -0.657188
    O   O41   0.480078  0.588800  0.971970  -0.656731
    O   O42   0.411079  0.480717  0.971630  -0.656084
    O   O43   0.519174  0.411731  0.971412  -0.656606
    O   O44   0.588149  0.519812  0.971752  -0.656988
    O   O45   0.480079  0.411156  0.028029  -0.656669
    O   O46   0.411080  0.519238  0.028370  -0.656100
    O   O47   0.519174  0.588225  0.028587  -0.656801
    O   O48   0.588150  0.480144  0.028246  -0.656903
    C   C137  0.999708  0.117598  0.500354  0.839693
    C   C138  0.881990  0.999975  0.499996  0.836183
    C   C139  0.999704  0.882348  0.499637  0.838590
    C   C140  0.117241  0.999971  0.499995  0.841016
    C   C141  0.499696  0.617603  0.000356  0.839115
    C   C142  0.381982  0.499977  0.000000  0.835987
    C   C143  0.499698  0.382353  0.999643  0.838609
    C   C144  0.617232  0.499978  0.999999  0.839924
    Cu  Cu9   0.999624  0.000315  0.466281  0.976265
    Cu  Cu10  0.999625  0.999631  0.533710  0.976210
    Cu  Cu11  0.499615  0.500318  0.966285  0.975862
    Cu  Cu12  0.499616  0.499638  0.033714  0.975850
    N   N1    0.564437  0.091618  0.895310  0.019136
    C   C145  0.630355  0.095084  0.888535  -0.123675
    C   C146  0.533497  0.150409  0.890232  -0.323211
    H   H49   0.645591  0.054892  0.872552  0.027931
    H   H50   0.655852  0.093662  0.913604  0.053549
    H   H51   0.641780  0.139097  0.874865  0.040469
    H   H52   0.483580  0.145473  0.897125  0.108465
    H   H53   0.537343  0.165649  0.862759  0.063610
    H   H54   0.554860  0.186062  0.907358  0.122752
    N   N2    0.906177  0.564195  0.896000  0.025992
    C   C147  0.904717  0.630006  0.888702  -0.126370
    C   C148  0.846148  0.535207  0.891928  -0.306345
    H   H55   0.944472  0.643281  0.871852  0.030339
    H   H56   0.908545  0.656108  0.913496  0.051870
    H   H57   0.860375  0.642684  0.875726  0.041722
    H   H58   0.849654  0.485310  0.899135  0.096758
    H   H59   0.829817  0.538976  0.864649  0.053403
    H   H60   0.812003  0.558188  0.909351  0.122053
    N   N3    0.435422  0.906051  0.896036  0.021135
    C   C149  0.369565  0.904822  0.888862  -0.123816
    C   C150  0.464195  0.845944  0.891844  -0.305088
    H   H61   0.356327  0.944630  0.872042  0.030931
    H   H62   0.343626  0.908727  0.913706  0.050657
    H   H63   0.356656  0.860530  0.875903  0.041782
    H   H64   0.514153  0.849274  0.898945  0.096157
    H   H65   0.460185  0.829704  0.864559  0.054501
    H   H66   0.441231  0.811815  0.909284  0.121711
    N   N4    0.091902  0.435415  0.895353  0.012097
    C   C151  0.095307  0.369452  0.888709  -0.121251
    C   C152  0.150695  0.466286  0.890151  -0.320344
    H   H67   0.055108  0.354156  0.872748  0.027745
    H   H68   0.093852  0.344113  0.913827  0.052665
    H   H69   0.139313  0.357898  0.875065  0.040881
    H   H70   0.145805  0.516258  0.896931  0.107524
    H   H71   0.165861  0.462224  0.862676  0.063609
    H   H72   0.186385  0.445033  0.907296  0.122522
    N   N5    0.564432  0.908329  0.104687  0.018334
    C   C153  0.630349  0.904848  0.111460  -0.123262
    C   C154  0.533479  0.849546  0.109765  -0.322586
    H   H73   0.645596  0.945035  0.127445  0.027800
    H   H74   0.655845  0.906267  0.086391  0.053470
    H   H75   0.641766  0.860831  0.125128  0.040482
    H   H76   0.483563  0.854493  0.102874  0.108411
    H   H77   0.537324  0.834304  0.137238  0.063469
    H   H78   0.554832  0.813888  0.092638  0.122636
    N   N6    0.906180  0.435747  0.103994  0.025985
    C   C155  0.904730  0.369937  0.111294  -0.126815
    C   C156  0.846147  0.464727  0.108065  -0.306280
    H   H79   0.944487  0.356667  0.128143  0.030647
    H   H80   0.908559  0.343833  0.086500  0.051908
    H   H81   0.860390  0.357254  0.124271  0.041808
    H   H82   0.849646  0.514624  0.100857  0.096733
    H   H83   0.829817  0.460958  0.135344  0.053448
    H   H84   0.812006  0.441739  0.090643  0.122049
    N   N7    0.435454  0.093920  0.103962  0.021509
    C   C157  0.369596  0.095158  0.111134  -0.123196
    C   C158  0.464234  0.154024  0.108156  -0.304485
    H   H85   0.356352  0.055352  0.127954  0.030807
    H   H86   0.343658  0.091256  0.086290  0.050446
    H   H87   0.356691  0.139451  0.124093  0.041517
    H   H88   0.514192  0.150687  0.101058  0.095974
    H   H89   0.460221  0.170264  0.135441  0.054471
    H   H90   0.441277  0.188156  0.090716  0.121455
    N   N8    0.091886  0.564558  0.104645  0.012221
    C   C159  0.095278  0.630521  0.111290  -0.120928
    C   C160  0.150684  0.533698  0.109848  -0.320667
    H   H91   0.055075  0.645809  0.127249  0.027674
    H   H92   0.093820  0.655860  0.086171  0.052594
    H   H93   0.139280  0.642084  0.124934  0.040759
    H   H94   0.145803  0.483725  0.103068  0.107630
    H   H95   0.165847  0.537763  0.137324  0.063753
    H   H96   0.186372  0.554958  0.092704  0.122578
    N   N9    0.064438  0.591610  0.395307  0.019193
    C   C161  0.130354  0.595084  0.388531  -0.123609
    C   C162  0.033490  0.650396  0.390228  -0.322694
    H   H97   0.145596  0.554893  0.372547  0.027974
    H   H98   0.155853  0.593666  0.413599  0.053543
    H   H99   0.141773  0.639099  0.374860  0.040397
    H   H100  0.983574  0.645454  0.397122  0.108358
    H   H101  0.037333  0.665635  0.362755  0.063577
    H   H102  0.054849  0.686053  0.407354  0.122586
    N   N10   0.406151  0.064134  0.396003  0.025250
    C   C163  0.404662  0.129944  0.388705  -0.124953
    C   C164  0.346135  0.035119  0.391931  -0.305101
    H   H103  0.444410  0.143238  0.371855  0.030004
    H   H104  0.408479  0.156048  0.413499  0.051452
    H   H105  0.360314  0.142602  0.375730  0.041354
    H   H106  0.349663  0.985224  0.399137  0.096504
    H   H107  0.329802  0.038882  0.364652  0.053193
    H   H108  0.311980  0.058086  0.409354  0.121615
    N   N11   0.935443  0.406029  0.396038  0.021066
    C   C165  0.869585  0.404794  0.388866  -0.123312
    C   C166  0.964222  0.345925  0.391846  -0.304499
    H   H109  0.856342  0.444600  0.372046  0.030816
    H   H110  0.843648  0.408696  0.413711  0.050553
    H   H111  0.856679  0.360500  0.375908  0.041664
    H   H112  0.014179  0.349260  0.398944  0.096073
    H   H113  0.960209  0.329684  0.364560  0.054370
    H   H114  0.941263  0.311794  0.409286  0.121508
    N   N12   0.591935  0.935442  0.395355  0.011687
    C   C167  0.595371  0.869480  0.388713  -0.122653
    C   C168  0.650713  0.966339  0.390153  -0.320608
    H   H115  0.555181  0.854164  0.372751  0.028012
    H   H116  0.593925  0.844142  0.413831  0.053196
    H   H117  0.639384  0.857945  0.375071  0.041260
    H   H118  0.645799  0.016309  0.396931  0.107674
    H   H119  0.665880  0.962283  0.362677  0.063644
    H   H120  0.686414  0.945104  0.407297  0.122699
    N   N13   0.064440  0.408334  0.604689  0.018412
    C   C169  0.130356  0.404853  0.611464  -0.123308
    C   C170  0.033485  0.349551  0.609768  -0.322806
    H   H121  0.145602  0.445043  0.627446  0.027810
    H   H122  0.155854  0.406266  0.586395  0.053477
    H   H123  0.141770  0.360838  0.625135  0.040473
    H   H124  0.983570  0.354499  0.602875  0.108448
    H   H125  0.037328  0.334312  0.637241  0.063539
    H   H126  0.054840  0.313892  0.592642  0.122691
    N   N14   0.406190  0.935752  0.603996  0.025963
    C   C171  0.404740  0.869943  0.611298  -0.127155
    C   C172  0.346156  0.964732  0.608065  -0.306326
    H   H127  0.444496  0.856675  0.628149  0.030645
    H   H128  0.408571  0.843836  0.586506  0.052014
    H   H129  0.360399  0.857261  0.624275  0.041952
    H   H130  0.349655  0.014628  0.600855  0.096824
    H   H131  0.329824  0.960967  0.635344  0.053267
    H   H132  0.312016  0.941741  0.590643  0.122173
    N   N15   0.935463  0.593927  0.603957  0.021135
    C   C173  0.869606  0.595169  0.611130  -0.123380
    C   C174  0.964247  0.654029  0.608148  -0.304605
    H   H133  0.856360  0.555366  0.627952  0.030865
    H   H134  0.843667  0.591264  0.586286  0.050533
    H   H135  0.856704  0.639465  0.624086  0.041605
    H   H136  0.014204  0.650688  0.601049  0.096022
    H   H137  0.960237  0.670273  0.635432  0.054552
    H   H138  0.941291  0.688160  0.590706  0.121515
    N   N16   0.591893  0.064566  0.604644  0.012261
    C   C175  0.595284  0.130531  0.611287  -0.121149
    C   C176  0.650691  0.033707  0.609848  -0.320648
    H   H139  0.555081  0.145820  0.627245  0.027682
    H   H140  0.593827  0.155867  0.586168  0.052703
    H   H141  0.639287  0.142095  0.624931  0.040803
    H   H142  0.645810  0.983734  0.603070  0.107593
    H   H143  0.665853  0.037775  0.637324  0.063685
    H   H144  0.686378  0.054966  0.592704  0.122616
    N   N17   0.424855  0.075026  0.792292  -0.081804
    C   C177  0.436221  0.140991  0.790100  -0.158152
    C   C178  0.360169  0.057787  0.794186  -0.197261
    H   H145  0.480291  0.149674  0.775883  0.055351
    H   H146  0.440844  0.160184  0.816749  0.057387
    H   H147  0.397033  0.164596  0.776730  0.040777
    H   H148  0.356182  0.006302  0.794895  0.065156
    H   H149  0.334150  0.076038  0.771572  0.037318
    H   H150  0.339634  0.077354  0.818286  0.092617
    N   N18   0.918269  0.414090  0.781341  0.218188
    C   C179  0.863475  0.438522  0.798182  -0.189899
    C   C180  0.948965  0.363828  0.799367  -0.203528
    H   H151  0.855118  0.486931  0.789282  0.066670
    H   H152  0.868575  0.437746  0.826839  0.049227
    H   H153  0.822716  0.409478  0.791097  0.032271
    H   H154  0.998230  0.360989  0.790845  0.072480
    H   H155  0.925394  0.319361  0.792914  0.026322
    H   H156  0.947377  0.370804  0.827908  0.073094
    N   N19   0.585365  0.918092  0.781340  0.211131
    C   C181  0.560731  0.863307  0.798100  -0.197836
    C   C182  0.635648  0.948600  0.799447  -0.194059
    H   H157  0.512308  0.855143  0.789169  0.067630
    H   H158  0.561487  0.868280  0.826764  0.051588
    H   H159  0.589650  0.822482  0.790975  0.035242
    H   H160  0.638612  0.997897  0.790997  0.071426
    H   H161  0.680080  0.924963  0.792995  0.024445
    H   H162  0.628599  0.946903  0.827981  0.069935
    N   N20   0.074920  0.574868  0.792300  -0.079009
    C   C183  0.140889  0.563582  0.790033  -0.149104
    C   C184  0.057608  0.639529  0.794275  -0.196362
    H   H163  0.149580  0.519633  0.775700  0.051598
    H   H164  0.160148  0.558763  0.816656  0.054839
    H   H165  0.164428  0.602895  0.776741  0.038732
    H   H166  0.006119  0.643456  0.794978  0.066171
    H   H167  0.075846  0.665667  0.771700  0.036667
    H   H168  0.077135  0.659982  0.818406  0.091717
    N   N21   0.424892  0.924909  0.207703  -0.081576
    C   C185  0.436258  0.858945  0.209901  -0.157751
    C   C186  0.360207  0.942147  0.205795  -0.198616
    H   H169  0.480342  0.850268  0.224106  0.055270
    H   H170  0.440854  0.839738  0.183253  0.057222
    H   H171  0.397082  0.835348  0.223287  0.040669
    H   H172  0.356220  0.993631  0.205075  0.065580
    H   H173  0.334178  0.923911  0.228409  0.037704
    H   H174  0.339684  0.922563  0.181696  0.092931
    N   N22   0.918254  0.585862  0.218654  0.217143
    C   C187  0.863466  0.561428  0.201809  -0.190949
    C   C188  0.948951  0.636128  0.200632  -0.199983
    H   H175  0.855107  0.513019  0.210709  0.066834
    H   H176  0.868574  0.562200  0.173152  0.049519
    H   H177  0.822704  0.590471  0.208889  0.032504
    H   H178  0.998217  0.638960  0.209151  0.071531
    H   H179  0.925384  0.680595  0.207091  0.025388
    H   H180  0.947356  0.629162  0.172090  0.071984
    N   N23   0.585360  0.081885  0.218661  0.212736
    C   C189  0.560718  0.136675  0.201910  -0.198594
    C   C190  0.635644  0.051392  0.200548  -0.193803
    H   H181  0.512289  0.144820  0.210838  0.067837
    H   H182  0.561487  0.131720  0.173246  0.051598
    H   H183  0.589623  0.177503  0.209048  0.035227
    H   H184  0.638641  0.002101  0.209008  0.071345
    H   H185  0.680068  0.075058  0.206983  0.024137
    H   H186  0.628570  0.053066  0.172016  0.069845
    N   N24   0.074909  0.425087  0.207696  -0.078880
    C   C191  0.140877  0.436380  0.209961  -0.149866
    C   C192  0.057603  0.360425  0.205725  -0.196681
    H   H187  0.149565  0.480325  0.224298  0.051884
    H   H188  0.160131  0.441210  0.183337  0.054955
    H   H189  0.164422  0.397065  0.223248  0.039022
    H   H190  0.006114  0.356493  0.205025  0.066300
    H   H191  0.075848  0.334291  0.228299  0.036930
    H   H192  0.077127  0.339970  0.181593  0.091738
    N   N25   0.924853  0.575001  0.292294  -0.081293
    C   C193  0.936211  0.640967  0.290101  -0.157321
    C   C194  0.860169  0.557755  0.294192  -0.196696
    H   H193  0.980281  0.649654  0.275885  0.055052
    H   H194  0.940829  0.660163  0.316750  0.057030
    H   H195  0.897021  0.664566  0.276729  0.040499
    H   H196  0.856188  0.506270  0.294902  0.064979
    H   H197  0.834144  0.576001  0.271578  0.037159
    H   H198  0.839636  0.577321  0.318293  0.092422
    N   N26   0.418298  0.914043  0.281342  0.216809
    C   C195  0.363494  0.938455  0.298182  -0.190396
    C   C196  0.449011  0.863794  0.299370  -0.201256
    H   H199  0.355123  0.986864  0.289284  0.066749
    H   H200  0.368589  0.937677  0.326839  0.049322
    H   H201  0.322746  0.909400  0.291093  0.032571
    H   H202  0.498274  0.860963  0.290844  0.071948
    H   H203  0.425448  0.819319  0.292924  0.025732
    H   H204  0.447430  0.870778  0.327911  0.072624
    N   N27   0.085372  0.418079  0.281337  0.211765
    C   C197  0.060745  0.363291  0.298096  -0.196593
    C   C198  0.135654  0.448589  0.299443  -0.195077
    H   H205  0.012321  0.355123  0.289166  0.067238
    H   H206  0.061502  0.368263  0.326760  0.051264
    H   H207  0.089667  0.322468  0.290970  0.034754
    H   H208  0.138617  0.497886  0.290991  0.071658
    H   H209  0.180087  0.424953  0.292992  0.024601
    H   H210  0.128605  0.446894  0.327977  0.070200
    N   N28   0.574898  0.074871  0.292302  -0.079199
    C   C199  0.640872  0.063614  0.290031  -0.149839
    C   C200  0.557558  0.139523  0.294284  -0.195149
    H   H211  0.649578  0.019664  0.275702  0.051800
    H   H212  0.660140  0.058815  0.316653  0.055014
    H   H213  0.664388  0.102933  0.276732  0.038948
    H   H214  0.506068  0.143428  0.294994  0.065809
    H   H215  0.575777  0.165675  0.271710  0.036446
    H   H216  0.577085  0.159979  0.318415  0.091375
    N   N29   0.924871  0.424949  0.707701  -0.082086
    C   C201  0.936224  0.358983  0.709897  -0.157065
    C   C202  0.860188  0.442199  0.705797  -0.197989
    H   H217  0.980299  0.350295  0.724109  0.055093
    H   H218  0.940832  0.339781  0.683249  0.057057
    H   H219  0.897037  0.335390  0.723275  0.040403
    H   H220  0.856211  0.493685  0.705084  0.065349
    H   H221  0.834157  0.423959  0.728410  0.037523
    H   H222  0.839660  0.422630  0.681696  0.092818
    N   N30   0.418265  0.085887  0.718652  0.216898
    C   C203  0.363477  0.061455  0.701804  -0.190150
    C   C204  0.448967  0.136150  0.700631  -0.202450
    H   H223  0.355110  0.013049  0.710706  0.066862
    H   H224  0.368592  0.062222  0.673147  0.049326
    H   H225  0.322718  0.090505  0.708879  0.032458
    H   H226  0.498235  0.138974  0.709149  0.072188
    H   H227  0.425408  0.180620  0.707093  0.026179
    H   H228  0.447369  0.129188  0.672089  0.072802
    N   N31   0.085386  0.581876  0.718659  0.212627
    C   C205  0.060759  0.636666  0.701902  -0.199701
    C   C206  0.135667  0.551365  0.700552  -0.194616
    H   H229  0.012334  0.644829  0.710830  0.068118
    H   H230  0.061523  0.631699  0.673238  0.051897
    H   H231  0.089678  0.677488  0.709033  0.035642
    H   H232  0.138638  0.502071  0.709008  0.071586
    H   H233  0.180098  0.575009  0.706997  0.024467
    H   H234  0.128610  0.553051  0.672018  0.070061
    N   N32   0.574909  0.925101  0.707700  -0.079238
    C   C207  0.640877  0.936393  0.709965  -0.150085
    C   C208  0.557602  0.860438  0.705730  -0.196515
    H   H235  0.649565  0.980335  0.724304  0.051909
    H   H236  0.660131  0.941227  0.683341  0.055052
    H   H237  0.664422  0.897076  0.723250  0.039111
    H   H238  0.506113  0.856506  0.705031  0.066223
    H   H239  0.575849  0.834305  0.728305  0.036792
    H   H240  0.577124  0.839981  0.681598  0.091783
