# Generated by REPEAT Assigner based on pymatgen
data_DB0-m2_o1_o3_f0_nbo.sym.36_sqe
_audit_creation_date              2022-05-24
_audit_creation_method            REPEAT_Assigner
_cell_length_a                    21.546386
_cell_length_b                    21.546386
_cell_length_c                    38.474503
_cell_angle_alpha                 90.000000
_cell_angle_beta                  90.000000
_cell_angle_gamma                 90.000000
_cell_volume                      17861.663360
_symmetry_space_group_name_H-M    P1
_symmetry_Int_Tables_number       1
loop_
    _symmetry_equiv_pos_site_id
    _symmetry_equiv_pos_as_xyz
    1  x,y,z
loop_
    _atom_site_type_symbol
    _atom_site_label
    _atom_site_fract_x
    _atom_site_fract_y
    _atom_site_fract_z
    _atom_type_partial_charge
    O   O1    0.588565  0.051369  0.490656  -0.594060
    O   O2    0.948630  0.588565  0.490656  -0.594043
    O   O3    0.411434  0.948630  0.490656  -0.594062
    O   O4    0.051369  0.411434  0.490656  -0.594055
    O   O5    0.588565  0.948630  0.509344  -0.594059
    O   O6    0.948630  0.411434  0.509344  -0.594041
    O   O7    0.411434  0.051369  0.509344  -0.594061
    O   O8    0.051369  0.588565  0.509344  -0.594054
    O   O9    0.088565  0.551369  0.990656  -0.594044
    O   O10   0.448631  0.088565  0.990656  -0.594072
    O   O11   0.911435  0.448630  0.990656  -0.594029
    O   O12   0.551369  0.911434  0.990656  -0.594026
    O   O13   0.088565  0.448630  0.009344  -0.594042
    O   O14   0.448631  0.911434  0.009344  -0.594067
    O   O15   0.911435  0.551369  0.009344  -0.594052
    O   O16   0.551369  0.088565  0.009344  -0.594038
    C   C1    0.617501  0.999999  0.500000  0.714105
    C   C2    0.999999  0.617501  0.500000  0.714040
    C   C3    0.382498  0.999999  0.500000  0.714141
    C   C4    0.999999  0.382498  0.500000  0.714045
    C   C5    0.117501  0.499999  0.000000  0.714046
    C   C6    0.500000  0.117501  0.000000  0.714065
    C   C7    0.882498  0.499999  0.000000  0.714052
    C   C8    0.500000  0.882498  0.000000  0.714034
    O   O17   0.516687  0.051326  0.549696  -0.599984
    O   O18   0.948673  0.516687  0.549696  -0.599988
    O   O19   0.483312  0.948674  0.549696  -0.599998
    O   O20   0.051325  0.483312  0.549696  -0.599994
    O   O21   0.516687  0.948673  0.450304  -0.599991
    O   O22   0.948673  0.483312  0.450304  -0.599989
    O   O23   0.483312  0.051325  0.450304  -0.600005
    O   O24   0.051325  0.516687  0.450304  -0.599996
    O   O25   0.016687  0.551325  0.049696  -0.599995
    O   O26   0.448674  0.016687  0.049696  -0.600011
    O   O27   0.983312  0.448673  0.049696  -0.600000
    O   O28   0.551326  0.983312  0.049696  -0.599977
    O   O29   0.016687  0.448673  0.950304  -0.599992
    O   O30   0.448674  0.983312  0.950304  -0.600008
    O   O31   0.983312  0.551325  0.950304  -0.600007
    O   O32   0.551326  0.016687  0.950304  -0.599977
    C   C9    0.500000  0.000000  0.565986  0.680284
    C   C10   0.999999  0.500000  0.565986  0.680266
    C   C11   0.500000  0.999999  0.434014  0.680291
    C   C12   0.999999  0.499999  0.434014  0.680269
    C   C13   0.000000  0.499999  0.065986  0.680301
    C   C14   0.500000  0.999999  0.065986  0.680275
    C   C15   0.000000  0.499999  0.934014  0.680324
    C   C16   0.500000  0.000000  0.934014  0.680294
    Cu  Cu1   0.500000  0.060753  0.500000  0.962465
    Cu  Cu2   0.939246  0.500000  0.500000  0.962422
    Cu  Cu3   0.499999  0.939246  0.500000  0.962425
    Cu  Cu4   0.060753  0.499999  0.500000  0.962419
    Cu  Cu5   0.000000  0.560753  0.000000  0.962450
    Cu  Cu6   0.439246  0.999999  0.000000  0.962297
    Cu  Cu7   0.000000  0.439246  0.000000  0.962439
    Cu  Cu8   0.560754  0.999999  0.000000  0.962517
    C   C17   0.555324  0.002774  0.877913  -0.056406
    C   C18   0.997225  0.555324  0.877913  -0.056416
    C   C19   0.444676  0.997225  0.877913  -0.056417
    C   C20   0.002774  0.444675  0.877913  -0.056407
    C   C21   0.555324  0.997225  0.122087  -0.056407
    C   C22   0.997225  0.444675  0.122087  -0.056402
    C   C23   0.444675  0.002774  0.122087  -0.056406
    C   C24   0.002774  0.555324  0.122087  -0.056401
    C   C25   0.055324  0.502774  0.377913  -0.056417
    C   C26   0.497225  0.055324  0.377913  -0.056411
    C   C27   0.944675  0.497225  0.377913  -0.056414
    C   C28   0.502774  0.944675  0.377913  -0.056421
    C   C29   0.055324  0.497225  0.622087  -0.056401
    C   C30   0.497225  0.944675  0.622087  -0.056408
    C   C31   0.944675  0.502774  0.622087  -0.056389
    C   C32   0.502774  0.055324  0.622087  -0.056386
    H   H1    0.599169  0.004752  0.891493  0.104618
    H   H2    0.995248  0.599168  0.891493  0.104623
    H   H3    0.400831  0.995247  0.891493  0.104621
    H   H4    0.004752  0.400831  0.891493  0.104621
    H   H5    0.599168  0.995247  0.108507  0.104619
    H   H6    0.995248  0.400831  0.108506  0.104617
    H   H7    0.400832  0.004752  0.108506  0.104621
    H   H8    0.004752  0.599167  0.108506  0.104618
    H   H9    0.099168  0.504752  0.391494  0.104623
    H   H10   0.495247  0.099168  0.391493  0.104622
    H   H11   0.900831  0.495247  0.391494  0.104621
    H   H12   0.504752  0.900831  0.391494  0.104620
    H   H13   0.099168  0.495247  0.608507  0.104617
    H   H14   0.495247  0.900831  0.608507  0.104620
    H   H15   0.900831  0.504752  0.608507  0.104613
    H   H16   0.504752  0.099168  0.608507  0.104611
    C   C33   0.555320  0.001973  0.842102  -0.156378
    C   C34   0.998027  0.555319  0.842102  -0.156372
    C   C35   0.444680  0.998026  0.842102  -0.156384
    C   C36   0.001973  0.444680  0.842102  -0.156376
    C   C37   0.555320  0.998026  0.157898  -0.156375
    C   C38   0.998027  0.444680  0.157898  -0.156377
    C   C39   0.444680  0.001973  0.157898  -0.156388
    C   C40   0.001973  0.555319  0.157898  -0.156386
    C   C41   0.055319  0.501973  0.342102  -0.156377
    C   C42   0.498027  0.055319  0.342102  -0.156380
    C   C43   0.944680  0.498026  0.342102  -0.156372
    C   C44   0.501973  0.944680  0.342102  -0.156369
    C   C45   0.055319  0.498026  0.657898  -0.156388
    C   C46   0.498027  0.944680  0.657899  -0.156397
    C   C47   0.944680  0.501973  0.657898  -0.156388
    C   C48   0.501973  0.055319  0.657898  -0.156389
    H   H17   0.598981  0.004337  0.828340  0.108515
    H   H18   0.995662  0.598982  0.828341  0.108511
    H   H19   0.401016  0.995662  0.828342  0.108521
    H   H20   0.004337  0.401017  0.828341  0.108512
    H   H21   0.598982  0.995662  0.171659  0.108516
    H   H22   0.995662  0.401017  0.171659  0.108511
    H   H23   0.401017  0.004337  0.171659  0.108519
    H   H24   0.004337  0.598982  0.171659  0.108515
    H   H25   0.098982  0.504337  0.328341  0.108511
    H   H26   0.495662  0.098982  0.328341  0.108513
    H   H27   0.901017  0.495662  0.328341  0.108509
    H   H28   0.504337  0.901017  0.328341  0.108511
    H   H29   0.098982  0.495662  0.671659  0.108518
    H   H30   0.495662  0.901016  0.671658  0.108527
    H   H31   0.901017  0.504337  0.671659  0.108516
    H   H32   0.504337  0.098981  0.671660  0.108514
    C   C49   0.500000  0.000000  0.824036  0.092632
    C   C50   0.000000  0.499999  0.824036  0.092632
    C   C51   0.500000  0.999999  0.175964  0.092616
    C   C52   0.000000  0.499999  0.175964  0.092633
    C   C53   0.999999  0.499999  0.324036  0.092636
    C   C54   0.500000  0.999999  0.324036  0.092643
    C   C55   0.999999  0.500000  0.675964  0.092646
    C   C56   0.500000  0.000000  0.675964  0.092651
    C   C57   0.500000  0.999999  0.895988  -0.032105
    C   C58   0.000000  0.499999  0.895988  -0.032122
    C   C59   0.500000  0.999999  0.104013  -0.032091
    C   C60   0.000000  0.499999  0.104013  -0.032110
    C   C61   0.999999  0.499999  0.395987  -0.032095
    C   C62   0.500000  0.999999  0.395987  -0.032104
    C   C63   0.999999  0.500000  0.604012  -0.032112
    C   C64   0.500000  0.000000  0.604013  -0.032113
    C   C65   0.460556  0.038856  0.767908  -0.145081
    C   C66   0.961143  0.460555  0.767909  -0.145098
    C   C67   0.539444  0.961143  0.767909  -0.145092
    C   C68   0.038856  0.539444  0.767909  -0.145104
    C   C69   0.460556  0.961143  0.232091  -0.145080
    C   C70   0.961143  0.539444  0.232091  -0.145094
    C   C71   0.539444  0.038856  0.232091  -0.145097
    C   C72   0.038856  0.460555  0.232091  -0.145085
    C   C73   0.960555  0.538856  0.267909  -0.145101
    C   C74   0.461143  0.960555  0.267908  -0.145088
    C   C75   0.039444  0.461143  0.267909  -0.145097
    C   C76   0.538857  0.039443  0.267909  -0.145089
    C   C77   0.960555  0.461143  0.732092  -0.145072
    C   C78   0.461143  0.039444  0.732091  -0.145080
    C   C79   0.039444  0.538856  0.732091  -0.145079
    C   C80   0.538857  0.960555  0.732092  -0.145077
    H   H33   0.429896  0.070041  0.781665  0.114946
    H   H34   0.929957  0.429895  0.781664  0.114964
    H   H35   0.570105  0.929956  0.781663  0.114962
    H   H36   0.070042  0.570104  0.781664  0.114965
    H   H37   0.429895  0.929957  0.218336  0.114956
    H   H38   0.929957  0.570104  0.218336  0.114964
    H   H39   0.570104  0.070042  0.218336  0.114960
    H   H40   0.070042  0.429895  0.218336  0.114958
    H   H41   0.929895  0.570042  0.281664  0.114965
    H   H42   0.429957  0.929895  0.281664  0.114953
    H   H43   0.070104  0.429957  0.281664  0.114963
    H   H44   0.570042  0.070104  0.281664  0.114961
    H   H45   0.929895  0.429957  0.718336  0.114952
    H   H46   0.429956  0.070105  0.718337  0.114960
    H   H47   0.070104  0.570042  0.718336  0.114958
    H   H48   0.570041  0.929896  0.718335  0.114952
    C   C81   0.500000  0.999999  0.714021  0.081634
    C   C82   0.999999  0.500000  0.714021  0.081642
    C   C83   0.500000  0.999999  0.285979  0.081642
    C   C84   0.000000  0.499999  0.285979  0.081664
    C   C85   0.000000  0.499999  0.214021  0.081665
    C   C86   0.500000  0.999999  0.214021  0.081678
    C   C87   0.000000  0.499999  0.785979  0.081672
    C   C88   0.499999  0.000000  0.785979  0.081661
    C   C89   0.717696  0.995062  0.468704  0.181695
    C   C90   0.004937  0.717696  0.468704  0.181651
    C   C91   0.282303  0.004937  0.468704  0.181813
    C   C92   0.995062  0.282303  0.468704  0.181664
    C   C93   0.717696  0.004937  0.531296  0.181669
    C   C94   0.004937  0.282303  0.531296  0.181644
    C   C95   0.282303  0.995062  0.531296  0.181672
    C   C96   0.995062  0.717696  0.531296  0.181632
    C   C97   0.217697  0.495062  0.968704  0.181656
    C   C98   0.504937  0.217696  0.968704  0.181746
    C   C99   0.782303  0.504937  0.968704  0.181817
    C   C100  0.495063  0.782303  0.968704  0.181597
    C   C101  0.217697  0.504937  0.031296  0.181651
    C   C102  0.504937  0.782303  0.031296  0.181613
    C   C103  0.782303  0.495062  0.031296  0.181637
    C   C104  0.495063  0.217696  0.031296  0.181612
    C   C105  0.781877  0.994985  0.469160  -0.256341
    C   C106  0.005014  0.781877  0.469160  -0.256317
    C   C107  0.218122  0.005014  0.469160  -0.256374
    C   C108  0.994985  0.218122  0.469160  -0.256316
    C   C109  0.781877  0.005014  0.530840  -0.256324
    C   C110  0.005014  0.218122  0.530840  -0.256305
    C   C111  0.218122  0.994985  0.530840  -0.256317
    C   C112  0.994985  0.781877  0.530840  -0.256298
    C   C113  0.281877  0.494985  0.969160  -0.256317
    C   C114  0.505014  0.281877  0.969160  -0.256343
    C   C115  0.718122  0.505014  0.969160  -0.256342
    C   C116  0.494985  0.718122  0.969160  -0.256232
    C   C117  0.281877  0.505014  0.030840  -0.256308
    C   C118  0.505014  0.718122  0.030840  -0.256294
    C   C119  0.718122  0.494985  0.030840  -0.256307
    C   C120  0.494985  0.281877  0.030840  -0.256283
    H   H49   0.807329  0.991563  0.445101  0.143891
    H   H50   0.008436  0.807328  0.445101  0.143888
    H   H51   0.192671  0.008436  0.445101  0.143924
    H   H52   0.991563  0.192670  0.445101  0.143885
    H   H53   0.807328  0.008436  0.554900  0.143885
    H   H54   0.008436  0.192670  0.554899  0.143884
    H   H55   0.192670  0.991563  0.554899  0.143886
    H   H56   0.991563  0.807328  0.554899  0.143883
    H   H57   0.307329  0.491563  0.945101  0.143888
    H   H58   0.508436  0.307328  0.945101  0.143922
    H   H59   0.692671  0.508436  0.945101  0.143908
    H   H60   0.491563  0.692670  0.945101  0.143833
    H   H61   0.307329  0.508436  0.054899  0.143885
    H   H62   0.508436  0.692670  0.054899  0.143889
    H   H63   0.692671  0.491563  0.054899  0.143892
    H   H64   0.491563  0.307328  0.054899  0.143881
    C   C121  0.813973  0.999999  0.500000  -0.008056
    C   C122  0.999999  0.813973  0.500000  -0.008079
    C   C123  0.186026  0.999999  0.500000  -0.008074
    C   C124  0.999999  0.186026  0.500000  -0.008084
    C   C125  0.313973  0.499999  0.000000  -0.008069
    C   C126  0.500000  0.313973  0.000000  -0.008102
    C   C127  0.686027  0.500000  0.000000  -0.008087
    C   C128  0.500000  0.686026  0.000000  -0.008114
    C   C129  0.685341  0.000000  0.500000  -0.355087
    C   C130  0.999999  0.685341  0.500000  -0.355021
    C   C131  0.314658  0.000000  0.500000  -0.355131
    C   C132  0.999999  0.314658  0.500000  -0.355032
    C   C133  0.185341  0.500000  0.000000  -0.355035
    C   C134  0.500000  0.185341  0.000000  -0.355030
    C   C135  0.814658  0.499999  0.000000  -0.355094
    C   C136  0.500000  0.814658  0.000000  -0.354986
    O   O33   0.983180  0.088775  0.471337  -0.591956
    O   O34   0.911224  0.983180  0.471337  -0.591956
    O   O35   0.016819  0.911224  0.471337  -0.591959
    O   O36   0.088775  0.016819  0.471337  -0.591968
    O   O37   0.983180  0.911224  0.528663  -0.591964
    O   O38   0.911224  0.016819  0.528663  -0.591963
    O   O39   0.016819  0.088775  0.528663  -0.591967
    O   O40   0.088775  0.983180  0.528663  -0.591965
    O   O41   0.483180  0.588775  0.971337  -0.591911
    O   O42   0.411225  0.483180  0.971337  -0.591929
    O   O43   0.516819  0.411224  0.971337  -0.591943
    O   O44   0.588775  0.516819  0.971337  -0.591944
    O   O45   0.483180  0.411224  0.028663  -0.591954
    O   O46   0.411225  0.516819  0.028663  -0.591946
    O   O47   0.516819  0.588775  0.028663  -0.591952
    O   O48   0.588775  0.483180  0.028663  -0.591960
    C   C137  0.000000  0.117980  0.500000  0.704611
    C   C138  0.882019  0.999999  0.500000  0.704591
    C   C139  0.999999  0.882019  0.500000  0.704598
    C   C140  0.117980  0.999999  0.500000  0.704609
    C   C141  0.500000  0.617980  0.000000  0.704597
    C   C142  0.382020  0.499999  0.000000  0.704572
    C   C143  0.500000  0.382019  0.000000  0.704607
    C   C144  0.617980  0.499999  0.000000  0.704604
    Cu  Cu9   0.000000  0.999999  0.466076  0.930477
    Cu  Cu10  0.999999  0.999999  0.533924  0.930495
    Cu  Cu11  0.500000  0.499999  0.966076  0.930468
    Cu  Cu12  0.500000  0.499999  0.033924  0.930497
    C   C145  0.684837  0.988944  0.434234  0.421462
    C   C146  0.699432  0.044011  0.411020  -0.372032
    C   C147  0.702842  0.928789  0.416322  -0.370126
    H   H65   0.634000  0.987643  0.437035  -0.019092
    H   H66   0.748642  0.043533  0.402671  0.083953
    H   H67   0.689722  0.087550  0.425394  0.064427
    H   H68   0.669378  0.042107  0.387641  0.065996
    H   H69   0.751203  0.930617  0.406593  0.083727
    H   H70   0.671299  0.920915  0.393974  0.072162
    H   H71   0.697900  0.889773  0.434914  0.063221
    C   C148  0.011055  0.684837  0.434234  0.421486
    C   C149  0.955988  0.699432  0.411020  -0.372044
    C   C150  0.071210  0.702842  0.416322  -0.370138
    H   H72   0.012356  0.634000  0.437034  -0.019090
    H   H73   0.956466  0.748642  0.402671  0.083955
    H   H74   0.912449  0.689721  0.425394  0.064429
    H   H75   0.957892  0.669378  0.387641  0.065998
    H   H76   0.069382  0.751203  0.406593  0.083732
    H   H77   0.079084  0.671298  0.393974  0.072160
    H   H78   0.110226  0.697900  0.434914  0.063226
    C   C151  0.315162  0.011055  0.434234  0.421243
    C   C152  0.300567  0.955988  0.411020  -0.372040
    C   C153  0.297157  0.071210  0.416322  -0.370071
    H   H79   0.365999  0.012356  0.437034  -0.019022
    H   H80   0.251357  0.956466  0.402671  0.083954
    H   H81   0.310278  0.912449  0.425394  0.064435
    H   H82   0.330621  0.957892  0.387641  0.066022
    H   H83   0.248796  0.069382  0.406593  0.083705
    H   H84   0.328700  0.079084  0.393974  0.072167
    H   H85   0.302099  0.110226  0.434914  0.063221
    C   C154  0.988944  0.315162  0.434234  0.421471
    C   C155  0.044011  0.300567  0.411020  -0.372043
    C   C156  0.928789  0.297157  0.416322  -0.370118
    H   H86   0.987643  0.365999  0.437034  -0.019093
    H   H87   0.043533  0.251357  0.402671  0.083958
    H   H88   0.087550  0.310277  0.425394  0.064430
    H   H89   0.042107  0.330621  0.387641  0.065997
    H   H90   0.930617  0.248796  0.406593  0.083726
    H   H91   0.920915  0.328700  0.393974  0.072156
    H   H92   0.889773  0.302099  0.434914  0.063221
    C   C157  0.684837  0.011055  0.565766  0.421485
    C   C158  0.699432  0.955988  0.588980  -0.372055
    C   C159  0.702842  0.071210  0.583678  -0.370130
    H   H93   0.634000  0.012357  0.562966  -0.019095
    H   H94   0.748642  0.956466  0.597329  0.083959
    H   H95   0.689721  0.912449  0.574606  0.064429
    H   H96   0.669378  0.957892  0.612359  0.066003
    H   H97   0.751203  0.069382  0.593407  0.083729
    H   H98   0.671298  0.079084  0.606026  0.072158
    H   H99   0.697900  0.110226  0.565086  0.063224
    C   C160  0.011055  0.315162  0.565766  0.421478
    C   C161  0.955988  0.300567  0.588980  -0.372043
    C   C162  0.071210  0.297157  0.583678  -0.370140
    H   H100  0.012356  0.365999  0.562966  -0.019088
    H   H101  0.956466  0.251357  0.597329  0.083957
    H   H102  0.912449  0.310278  0.574606  0.064429
    H   H103  0.957892  0.330621  0.612359  0.065998
    H   H104  0.069382  0.248796  0.593407  0.083732
    H   H105  0.079084  0.328700  0.606026  0.072162
    H   H106  0.110226  0.302099  0.565086  0.063227
    C   C163  0.315162  0.988944  0.565766  0.421474
    C   C164  0.300567  0.044011  0.588980  -0.372034
    C   C165  0.297157  0.928789  0.583678  -0.370131
    H   H107  0.365999  0.987643  0.562965  -0.019098
    H   H108  0.251357  0.043533  0.597329  0.083955
    H   H109  0.310277  0.087550  0.574606  0.064427
    H   H110  0.330621  0.042107  0.612359  0.065996
    H   H111  0.248796  0.930617  0.593407  0.083730
    H   H112  0.328700  0.920915  0.606026  0.072161
    H   H113  0.302099  0.889773  0.565086  0.063222
    C   C166  0.988944  0.684837  0.565766  0.421493
    C   C167  0.044011  0.699432  0.588980  -0.372049
    C   C168  0.928789  0.702842  0.583678  -0.370135
    H   H114  0.987643  0.634000  0.562966  -0.019095
    H   H115  0.043533  0.748642  0.597329  0.083957
    H   H116  0.087550  0.689722  0.574606  0.064431
    H   H117  0.042107  0.669378  0.612359  0.065999
    H   H118  0.930617  0.751203  0.593407  0.083731
    H   H119  0.920915  0.671298  0.606026  0.072158
    H   H120  0.889773  0.697900  0.565086  0.063226
    C   C169  0.184837  0.488944  0.934234  0.421479
    C   C170  0.199432  0.544011  0.911020  -0.372030
    C   C171  0.202842  0.428789  0.916322  -0.370131
    H   H121  0.134000  0.487643  0.937034  -0.019098
    H   H122  0.248642  0.543533  0.902671  0.083953
    H   H123  0.189722  0.587550  0.925394  0.064427
    H   H124  0.169378  0.542107  0.887641  0.065994
    H   H125  0.251203  0.430617  0.906593  0.083731
    H   H126  0.171299  0.420915  0.893974  0.072160
    H   H127  0.197900  0.389773  0.934914  0.063221
    C   C172  0.511055  0.184837  0.934234  0.421273
    C   C173  0.455988  0.199432  0.911020  -0.372048
    C   C174  0.571211  0.202842  0.916322  -0.370093
    H   H128  0.512357  0.134000  0.937034  -0.019031
    H   H129  0.456466  0.248642  0.902671  0.083961
    H   H130  0.412449  0.189721  0.925394  0.064442
    H   H131  0.457892  0.169378  0.887641  0.066019
    H   H132  0.569382  0.251203  0.906593  0.083713
    H   H133  0.579084  0.171298  0.893974  0.072170
    H   H134  0.610227  0.197900  0.934914  0.063231
    C   C175  0.815163  0.511055  0.934234  0.421274
    C   C176  0.800568  0.455988  0.911020  -0.372213
    C   C177  0.797158  0.571210  0.916322  -0.370086
    H   H135  0.865999  0.512356  0.937034  -0.019014
    H   H136  0.751357  0.456466  0.902671  0.084013
    H   H137  0.810278  0.412449  0.925394  0.064470
    H   H138  0.830621  0.457892  0.887641  0.066060
    H   H139  0.748797  0.569382  0.906593  0.083711
    H   H140  0.828701  0.579084  0.893974  0.072176
    H   H141  0.802099  0.610226  0.934914  0.063217
    C   C178  0.488945  0.815162  0.934234  0.421503
    C   C179  0.544011  0.800567  0.911020  -0.372081
    C   C180  0.428789  0.797157  0.916322  -0.370153
    H   H142  0.487643  0.865999  0.937034  -0.019089
    H   H143  0.543533  0.751357  0.902671  0.083982
    H   H144  0.587550  0.810277  0.925394  0.064435
    H   H145  0.542108  0.830621  0.887641  0.066004
    H   H146  0.430617  0.748796  0.906593  0.083744
    H   H147  0.420915  0.828700  0.893974  0.072163
    H   H148  0.389773  0.802099  0.934914  0.063231
    C   C181  0.184837  0.511054  0.065766  0.421470
    C   C182  0.199432  0.455988  0.088980  -0.372037
    C   C183  0.202842  0.571210  0.083678  -0.370122
    H   H149  0.134000  0.512356  0.062966  -0.019098
    H   H150  0.248642  0.456466  0.097329  0.083957
    H   H151  0.189722  0.412449  0.074606  0.064424
    H   H152  0.169378  0.457891  0.112359  0.065999
    H   H153  0.251203  0.569382  0.093407  0.083729
    H   H154  0.171299  0.579084  0.106026  0.072157
    H   H155  0.197900  0.610226  0.065086  0.063223
    C   C184  0.511055  0.815162  0.065766  0.421482
    C   C185  0.455988  0.800567  0.088980  -0.372037
    C   C186  0.571211  0.797157  0.083678  -0.370133
    H   H156  0.512357  0.865999  0.062966  -0.019101
    H   H157  0.456466  0.751357  0.097329  0.083961
    H   H158  0.412449  0.810278  0.074606  0.064430
    H   H159  0.457892  0.830621  0.112359  0.065994
    H   H160  0.569382  0.748796  0.093407  0.083732
    H   H161  0.579084  0.828700  0.106026  0.072161
    H   H162  0.610227  0.802099  0.065086  0.063228
    C   C187  0.815163  0.488944  0.065766  0.421499
    C   C188  0.800567  0.544011  0.088980  -0.372049
    C   C189  0.797158  0.428789  0.083678  -0.370134
    H   H163  0.865999  0.487643  0.062966  -0.019101
    H   H164  0.751357  0.543533  0.097329  0.083961
    H   H165  0.810278  0.587550  0.074606  0.064430
    H   H166  0.830621  0.542107  0.112359  0.065997
    H   H167  0.748797  0.430617  0.093407  0.083731
    H   H168  0.828701  0.420915  0.106026  0.072161
    H   H169  0.802099  0.389772  0.065086  0.063223
    C   C190  0.488945  0.184836  0.065766  0.421485
    C   C191  0.544011  0.199432  0.088980  -0.372050
    C   C192  0.428789  0.202842  0.083678  -0.370126
    H   H170  0.487643  0.134000  0.062966  -0.019099
    H   H171  0.543533  0.248642  0.097329  0.083963
    H   H172  0.587551  0.189722  0.074606  0.064428
    H   H173  0.542108  0.169378  0.112359  0.065999
    H   H174  0.430617  0.251203  0.093407  0.083736
    H   H175  0.420915  0.171299  0.106026  0.072157
    H   H176  0.389773  0.197900  0.065086  0.063224
