# Generated by REPEAT Assigner based on pymatgen
data_DB0-m2_o1_o3_f0_pcu.sym.10
_audit_creation_date              2022-05-24
_audit_creation_method            REPEAT_Assigner
_cell_length_a                    10.907736
_cell_length_b                    9.409917
_cell_length_c                    19.406715
_cell_angle_alpha                 90.000000
_cell_angle_beta                  89.995035
_cell_angle_gamma                 90.000000
_cell_volume                      1991.922601
_symmetry_space_group_name_H-M    P1
_symmetry_Int_Tables_number       1
loop_
    _symmetry_equiv_pos_site_id
    _symmetry_equiv_pos_as_xyz
    1  x,y,z
loop_
    _atom_site_type_symbol
    _atom_site_label
    _atom_site_fract_x
    _atom_site_fract_y
    _atom_site_fract_z
    _atom_type_partial_charge
    O   O1   0.321964  0.621433  0.502507  -0.477184
    O   O2   0.678652  0.378669  0.497157  -0.478469
    O   O3   0.678275  0.622310  0.502399  -0.485212
    O   O4   0.322387  0.378306  0.497660  -0.481647
    C   C1   0.872109  0.500122  0.499545  -0.303171
    C   C2   0.128638  0.499688  0.499924  -0.301677
    C   C3   0.263959  0.499792  0.500186  0.704881
    C   C4   0.736539  0.500503  0.499827  0.708854
    O   O5   0.496080  0.621562  0.399899  -0.464074
    O   O6   0.505294  0.378064  0.599849  -0.466196
    O   O7   0.495937  0.621694  0.600168  -0.454738
    O   O8   0.504651  0.378389  0.399582  -0.448904
    C   C5   0.500932  0.500102  0.367038  0.557904
    C   C6   0.501256  0.499687  0.632714  0.564131
    Cu  Cu1  0.500059  0.641963  0.499993  0.697071
    Cu  Cu2  0.500374  0.358265  0.499773  0.689133
    C   C7   0.063741  0.372973  0.500130  0.223406
    C   C8   0.937195  0.626609  0.499733  0.219953
    C   C9   0.937256  0.373354  0.499926  0.219918
    C   C10  0.063691  0.626564  0.499868  0.222369
    C   C11  0.503453  0.372539  0.745357  0.400715
    C   C12  0.496062  0.627296  0.254395  0.403603
    C   C13  0.504438  0.373448  0.254200  0.404317
    C   C14  0.495200  0.626267  0.745201  0.399962
    C   C15  0.502347  0.373167  0.816480  -0.365864
    C   C16  0.495230  0.627015  0.183336  -0.366574
    C   C17  0.505009  0.374494  0.183117  -0.365997
    C   C18  0.495186  0.625840  0.816192  -0.362413
    H   H1   0.507034  0.273013  0.843445  0.168794
    H   H2   0.486953  0.727258  0.156644  0.168162
    H   H3   0.511304  0.274781  0.155661  0.166218
    H   H4   0.488955  0.726609  0.842705  0.165445
    C   C19  0.499204  0.499703  0.852462  0.129977
    C   C20  0.500166  0.500823  0.147181  0.129882
    C   C21  0.423298  0.073814  0.457890  0.269200
    C   C22  0.573861  0.926788  0.542294  0.274603
    C   C23  0.575162  0.073061  0.541996  0.269589
    C   C24  0.422327  0.927030  0.457985  0.269008
    C   C25  0.500374  0.499379  0.708781  -0.278582
    C   C26  0.500698  0.500277  0.290858  -0.281296
    C   C27  0.564593  0.602425  0.964250  -0.173685
    C   C28  0.435318  0.398056  0.035423  -0.174586
    C   C29  0.564307  0.602690  0.035335  -0.178827
    C   C30  0.435420  0.398024  0.964415  -0.179340
    H   H5   0.618636  0.681248  0.937459  0.130005
    H   H6   0.381662  0.318691  0.062185  0.129926
    H   H7   0.617932  0.681575  0.062374  0.127781
    H   H8   0.381660  0.319049  0.937695  0.128525
    N   N1   0.498814  0.854659  0.499888  -0.202539
    N   N2   0.500841  0.145532  0.499462  -0.198395
    C   C31  0.499560  0.500707  0.071437  0.162403
    C   C32  0.499850  0.500134  0.928232  0.159927
    F   F1   0.346853  0.144309  0.414570  -0.109112
    F   F2   0.650443  0.856368  0.585148  -0.108973
    F   F3   0.651797  0.143371  0.584814  -0.103685
    F   F4   0.346703  0.856557  0.414189  -0.104570
    F   F5   0.122154  0.245775  0.501344  -0.151355
    F   F6   0.878747  0.753700  0.500139  -0.148899
    F   F7   0.879140  0.246350  0.501017  -0.146352
    F   F8   0.121659  0.754170  0.500233  -0.149987
    F   F9   0.508500  0.245589  0.712548  -0.187200
    F   F10  0.491250  0.754393  0.287150  -0.187745
    F   F11  0.508871  0.246040  0.286691  -0.189412
    F   F12  0.489662  0.753546  0.712576  -0.189001
