# Generated by REPEAT Assigner based on pymatgen
data_DB0-m2_o1_o3_f0_nbo.sym.47
_audit_creation_date              2022-05-24
_audit_creation_method            REPEAT_Assigner
_cell_length_a                    21.497483
_cell_length_b                    21.497483
_cell_length_c                    38.475198
_cell_angle_alpha                 90.000000
_cell_angle_beta                  90.000000
_cell_angle_gamma                 90.000000
_cell_volume                      17780.996660
_symmetry_space_group_name_H-M    P1
_symmetry_Int_Tables_number       1
loop_
    _symmetry_equiv_pos_site_id
    _symmetry_equiv_pos_as_xyz
    1  x,y,z
loop_
    _atom_site_type_symbol
    _atom_site_label
    _atom_site_fract_x
    _atom_site_fract_y
    _atom_site_fract_z
    _atom_type_partial_charge
    O   O1    0.588745  0.051450  0.490649  -0.599274
    O   O2    0.948550  0.588745  0.490649  -0.599253
    O   O3    0.411255  0.948550  0.490649  -0.599237
    O   O4    0.051450  0.411255  0.490649  -0.599277
    O   O5    0.588745  0.948549  0.509351  -0.599242
    O   O6    0.948549  0.411255  0.509351  -0.599258
    O   O7    0.411255  0.051451  0.509351  -0.599274
    O   O8    0.051451  0.588745  0.509351  -0.599273
    O   O9    0.088745  0.551450  0.990649  -0.599260
    O   O10   0.448550  0.088745  0.990649  -0.599271
    O   O11   0.911255  0.448549  0.990649  -0.599286
    O   O12   0.551451  0.911255  0.990649  -0.599268
    O   O13   0.088745  0.448549  0.009351  -0.599280
    O   O14   0.448550  0.911255  0.009351  -0.599268
    O   O15   0.911255  0.551450  0.009351  -0.599252
    O   O16   0.551451  0.088745  0.009351  -0.599264
    C   C1    0.617766  0.000000  0.500000  0.818767
    C   C2    0.000000  0.617766  0.500000  0.818780
    C   C3    0.382234  0.000000  0.500000  0.818764
    C   C4    0.000000  0.382234  0.500000  0.818781
    C   C5    0.117766  0.500000  0.000000  0.818793
    C   C6    0.500000  0.117766  0.000000  0.818824
    C   C7    0.882234  0.500000  0.000000  0.818804
    C   C8    0.500000  0.882234  0.000000  0.818809
    O   O17   0.516790  0.051419  0.549689  -0.520752
    O   O18   0.948581  0.516791  0.549689  -0.520721
    O   O19   0.483209  0.948581  0.549689  -0.520714
    O   O20   0.051419  0.483210  0.549689  -0.520745
    O   O21   0.516790  0.948581  0.450311  -0.520709
    O   O22   0.948581  0.483210  0.450311  -0.520715
    O   O23   0.483210  0.051419  0.450311  -0.520749
    O   O24   0.051419  0.516790  0.450311  -0.520742
    O   O25   0.016790  0.551419  0.049689  -0.520731
    O   O26   0.448581  0.016791  0.049689  -0.520721
    O   O27   0.983210  0.448581  0.049689  -0.520764
    O   O28   0.551419  0.983210  0.049689  -0.520717
    O   O29   0.016790  0.448581  0.950311  -0.520768
    O   O30   0.448581  0.983210  0.950311  -0.520736
    O   O31   0.983210  0.551419  0.950311  -0.520742
    O   O32   0.551419  0.016791  0.950311  -0.520738
    C   C9    0.500000  0.000000  0.565977  0.510027
    C   C10   0.000000  0.500000  0.565977  0.510026
    C   C11   0.500000  0.000000  0.434023  0.510028
    C   C12   0.000000  0.500000  0.434023  0.510032
    C   C13   0.000000  0.500000  0.065977  0.510075
    C   C14   0.500000  0.000000  0.065977  0.509987
    C   C15   0.000000  0.500000  0.934023  0.510053
    C   C16   0.500000  0.000000  0.934023  0.509980
    Cu  Cu1   0.500000  0.060875  0.500000  0.920324
    Cu  Cu2   0.939126  0.500000  0.500000  0.920446
    Cu  Cu3   0.500000  0.939126  0.500000  0.920480
    Cu  Cu4   0.060875  0.500000  0.500000  0.920370
    Cu  Cu5   0.000000  0.560874  0.000000  0.920476
    Cu  Cu6   0.439126  0.000000  0.000000  0.920386
    Cu  Cu7   0.000000  0.439125  0.000000  0.920360
    Cu  Cu8   0.560875  0.000000  0.000000  0.920449
    C   C17   0.555453  0.002949  0.877915  -0.097568
    C   C18   0.997051  0.555453  0.877915  -0.097552
    C   C19   0.444547  0.997052  0.877915  -0.097602
    C   C20   0.002949  0.444547  0.877915  -0.097554
    C   C21   0.555453  0.997051  0.122085  -0.097589
    C   C22   0.997051  0.444547  0.122085  -0.097555
    C   C23   0.444547  0.002949  0.122085  -0.097586
    C   C24   0.002949  0.555453  0.122085  -0.097551
    C   C25   0.055453  0.502949  0.377915  -0.097557
    C   C26   0.497052  0.055453  0.377915  -0.097574
    C   C27   0.944547  0.497051  0.377915  -0.097553
    C   C28   0.502948  0.944547  0.377915  -0.097588
    C   C29   0.055453  0.497051  0.622085  -0.097581
    C   C30   0.497051  0.944547  0.622085  -0.097582
    C   C31   0.944547  0.502949  0.622085  -0.097591
    C   C32   0.502949  0.055453  0.622085  -0.097577
    H   H1    0.599398  0.005015  0.891494  0.101268
    H   H2    0.994985  0.599398  0.891494  0.101288
    H   H3    0.400602  0.994985  0.891494  0.101301
    H   H4    0.005015  0.400602  0.891494  0.101286
    H   H5    0.599398  0.994985  0.108506  0.101299
    H   H6    0.994985  0.400602  0.108506  0.101289
    H   H7    0.400602  0.005015  0.108506  0.101299
    H   H8    0.005015  0.599398  0.108506  0.101289
    H   H9    0.099398  0.505015  0.391494  0.101289
    H   H10   0.494986  0.099398  0.391494  0.101292
    H   H11   0.900602  0.494985  0.391494  0.101289
    H   H12   0.505014  0.900602  0.391494  0.101295
    H   H13   0.099398  0.494985  0.608506  0.101300
    H   H14   0.494985  0.900602  0.608506  0.101300
    H   H15   0.900602  0.505015  0.608506  0.101305
    H   H16   0.505015  0.099398  0.608506  0.101297
    C   C33   0.555446  0.002170  0.842100  -0.166137
    C   C34   0.997830  0.555445  0.842100  -0.166144
    C   C35   0.444554  0.997830  0.842100  -0.166119
    C   C36   0.002170  0.444554  0.842100  -0.166153
    C   C37   0.555446  0.997830  0.157900  -0.166134
    C   C38   0.997830  0.444554  0.157900  -0.166148
    C   C39   0.444555  0.002170  0.157900  -0.166123
    C   C40   0.002170  0.555445  0.157900  -0.166143
    C   C41   0.055446  0.502170  0.342100  -0.166146
    C   C42   0.497831  0.055446  0.342100  -0.166132
    C   C43   0.944554  0.497830  0.342100  -0.166147
    C   C44   0.502170  0.944554  0.342100  -0.166118
    C   C45   0.055446  0.497830  0.657900  -0.166141
    C   C46   0.497830  0.944554  0.657900  -0.166130
    C   C47   0.944554  0.502170  0.657900  -0.166125
    C   C48   0.502170  0.055446  0.657900  -0.166137
    H   H17   0.599198  0.004677  0.828336  0.114614
    H   H18   0.995324  0.599198  0.828336  0.114611
    H   H19   0.400802  0.995324  0.828336  0.114613
    H   H20   0.004676  0.400802  0.828336  0.114619
    H   H21   0.599198  0.995323  0.171663  0.114617
    H   H22   0.995324  0.400802  0.171663  0.114618
    H   H23   0.400803  0.004677  0.171664  0.114607
    H   H24   0.004677  0.599198  0.171664  0.114610
    H   H25   0.099198  0.504677  0.328336  0.114618
    H   H26   0.495324  0.099198  0.328336  0.114616
    H   H27   0.900802  0.495323  0.328336  0.114617
    H   H28   0.504676  0.900802  0.328336  0.114613
    H   H29   0.099198  0.495323  0.671664  0.114617
    H   H30   0.495323  0.900802  0.671664  0.114612
    H   H31   0.900802  0.504677  0.671664  0.114613
    H   H32   0.504676  0.099198  0.671664  0.114614
    C   C49   0.500000  0.000000  0.824035  0.112241
    C   C50   0.000000  0.500000  0.824035  0.112278
    C   C51   0.500000  0.000000  0.175965  0.112260
    C   C52   0.000000  0.500000  0.175965  0.112281
    C   C53   0.000000  0.500000  0.324035  0.112271
    C   C54   0.500000  0.000000  0.324035  0.112256
    C   C55   0.000000  0.500000  0.675965  0.112268
    C   C56   0.500000  0.000000  0.675965  0.112268
    C   C57   0.500000  0.000000  0.895993  0.107145
    C   C58   0.000000  0.500000  0.895993  0.107053
    C   C59   0.500000  0.000000  0.104007  0.107112
    C   C60   0.000000  0.500000  0.104007  0.107031
    C   C61   0.000000  0.500000  0.395993  0.107062
    C   C62   0.500000  0.000000  0.395993  0.107085
    C   C63   0.000000  0.500000  0.604007  0.107092
    C   C64   0.500000  0.000000  0.604007  0.107085
    C   C65   0.460458  0.038936  0.767908  -0.132699
    C   C66   0.961064  0.460458  0.767908  -0.132697
    C   C67   0.539542  0.961064  0.767908  -0.132701
    C   C68   0.038936  0.539542  0.767908  -0.132697
    C   C69   0.460458  0.961064  0.232092  -0.132721
    C   C70   0.961064  0.539542  0.232092  -0.132716
    C   C71   0.539542  0.038936  0.232092  -0.132725
    C   C72   0.038936  0.460458  0.232092  -0.132718
    C   C73   0.960458  0.538936  0.267908  -0.132700
    C   C74   0.461064  0.960458  0.267908  -0.132698
    C   C75   0.039542  0.461064  0.267908  -0.132703
    C   C76   0.538936  0.039542  0.267908  -0.132700
    C   C77   0.960458  0.461064  0.732092  -0.132720
    C   C78   0.461064  0.039542  0.732092  -0.132731
    C   C79   0.039542  0.538936  0.732092  -0.132727
    C   C80   0.538936  0.960458  0.732092  -0.132727
    H   H33   0.429715  0.070176  0.781666  0.106938
    H   H34   0.929824  0.429715  0.781666  0.106936
    H   H35   0.570285  0.929825  0.781666  0.106941
    H   H36   0.070176  0.570285  0.781667  0.106935
    H   H37   0.429715  0.929824  0.218334  0.106942
    H   H38   0.929824  0.570285  0.218334  0.106941
    H   H39   0.570285  0.070175  0.218334  0.106944
    H   H40   0.070176  0.429715  0.218334  0.106943
    H   H41   0.929715  0.570175  0.281666  0.106937
    H   H42   0.429825  0.929715  0.281667  0.106935
    H   H43   0.070285  0.429824  0.281666  0.106936
    H   H44   0.570176  0.070285  0.281666  0.106938
    H   H45   0.929715  0.429825  0.718333  0.106938
    H   H46   0.429824  0.070285  0.718334  0.106946
    H   H47   0.070286  0.570175  0.718334  0.106944
    H   H48   0.570176  0.929715  0.718334  0.106944
    C   C81   0.500000  0.000000  0.714022  0.060453
    C   C82   0.000000  0.500000  0.714022  0.060450
    C   C83   0.500000  0.000000  0.285978  0.060434
    C   C84   0.000000  0.500000  0.285978  0.060436
    C   C85   0.000000  0.500000  0.214022  0.060440
    C   C86   0.500000  0.000000  0.214022  0.060455
    C   C87   0.000000  0.500000  0.785978  0.060433
    C   C88   0.500000  0.000000  0.785978  0.060449
    C   C89   0.717784  0.964851  0.475968  0.062794
    C   C90   0.035149  0.717784  0.475968  0.062797
    C   C91   0.282216  0.035149  0.475968  0.062799
    C   C92   0.964851  0.282216  0.475969  0.062820
    C   C93   0.717784  0.035148  0.524032  0.062791
    C   C94   0.035148  0.282216  0.524031  0.062805
    C   C95   0.282216  0.964852  0.524032  0.062790
    C   C96   0.964852  0.717784  0.524031  0.062794
    C   C97   0.217784  0.464851  0.975968  0.062822
    C   C98   0.535149  0.217784  0.975968  0.062889
    C   C99   0.782216  0.535148  0.975968  0.062811
    C   C100  0.464852  0.782217  0.975968  0.062807
    C   C101  0.217784  0.535148  0.024032  0.062814
    C   C102  0.535149  0.782216  0.024032  0.062816
    C   C103  0.782216  0.464851  0.024032  0.062832
    C   C104  0.464852  0.217784  0.024031  0.062874
    C   C105  0.781858  0.965841  0.475526  -0.193215
    C   C106  0.034160  0.781858  0.475526  -0.193223
    C   C107  0.218142  0.034160  0.475526  -0.193236
    C   C108  0.965840  0.218142  0.475526  -0.193246
    C   C109  0.781858  0.034159  0.524474  -0.193210
    C   C110  0.034159  0.218142  0.524474  -0.193220
    C   C111  0.218142  0.965841  0.524474  -0.193219
    C   C112  0.965841  0.781858  0.524474  -0.193203
    C   C113  0.281858  0.465841  0.975526  -0.193237
    C   C114  0.534160  0.281858  0.975526  -0.193285
    C   C115  0.718142  0.534159  0.975526  -0.193228
    C   C116  0.465841  0.718142  0.975526  -0.193241
    C   C117  0.281858  0.534159  0.024474  -0.193232
    C   C118  0.534159  0.718142  0.024474  -0.193237
    C   C119  0.718142  0.465841  0.024474  -0.193230
    C   C120  0.465840  0.281858  0.024474  -0.193269
    H   H49   0.806218  0.938400  0.456336  0.124821
    H   H50   0.061601  0.806218  0.456336  0.124830
    H   H51   0.193782  0.061600  0.456336  0.124830
    H   H52   0.938399  0.193781  0.456336  0.124837
    H   H53   0.806218  0.061600  0.543664  0.124821
    H   H54   0.061600  0.193782  0.543664  0.124829
    H   H55   0.193782  0.938400  0.543664  0.124824
    H   H56   0.938399  0.806218  0.543664  0.124825
    H   H57   0.306218  0.438400  0.956336  0.124827
    H   H58   0.561601  0.306218  0.956336  0.124842
    H   H59   0.693782  0.561600  0.956336  0.124826
    H   H60   0.438400  0.693782  0.956336  0.124828
    H   H61   0.306218  0.561600  0.043664  0.124824
    H   H62   0.561600  0.693782  0.043664  0.124824
    H   H63   0.693782  0.438400  0.043664  0.124822
    H   H64   0.438399  0.306218  0.043664  0.124841
    C   C121  0.814156  0.000000  0.500000  0.050367
    C   C122  0.000000  0.814156  0.500000  0.050361
    C   C123  0.185844  0.000000  0.500000  0.050390
    C   C124  0.000000  0.185844  0.500000  0.050379
    C   C125  0.314156  0.500000  0.000000  0.050395
    C   C126  0.500000  0.314156  0.000000  0.050417
    C   C127  0.685844  0.500000  0.000000  0.050383
    C   C128  0.500000  0.685844  0.000000  0.050395
    C   C129  0.685611  0.000000  0.500000  -0.186511
    C   C130  0.000000  0.685611  0.500000  -0.186506
    C   C131  0.314389  0.000000  0.500000  -0.186518
    C   C132  0.000000  0.314389  0.500000  -0.186512
    C   C133  0.185611  0.500000  0.000000  -0.186554
    C   C134  0.500000  0.185611  0.000000  -0.186612
    C   C135  0.814389  0.500000  0.000000  -0.186564
    C   C136  0.500000  0.814390  0.000000  -0.186542
    O   O33   0.981542  0.088644  0.471565  -0.552692
    O   O34   0.911356  0.981542  0.471565  -0.552706
    O   O35   0.018458  0.911356  0.471565  -0.552692
    O   O36   0.088644  0.018458  0.471565  -0.552702
    O   O37   0.981542  0.911356  0.528435  -0.552683
    O   O38   0.911356  0.018458  0.528435  -0.552680
    O   O39   0.018458  0.088644  0.528435  -0.552677
    O   O40   0.088644  0.981542  0.528435  -0.552676
    O   O41   0.481542  0.588644  0.971565  -0.552702
    O   O42   0.411356  0.481542  0.971565  -0.552688
    O   O43   0.518458  0.411356  0.971565  -0.552707
    O   O44   0.588644  0.518458  0.971565  -0.552687
    O   O45   0.481542  0.411356  0.028435  -0.552713
    O   O46   0.411356  0.518458  0.028435  -0.552710
    O   O47   0.518458  0.588644  0.028435  -0.552712
    O   O48   0.588644  0.481542  0.028435  -0.552713
    C   C137  0.000000  0.117815  0.500000  0.624102
    C   C138  0.882185  0.000000  0.500000  0.624112
    C   C139  0.000000  0.882185  0.500000  0.624116
    C   C140  0.117815  0.000000  0.500000  0.624090
    C   C141  0.500000  0.617815  0.000000  0.624132
    C   C142  0.382185  0.500000  0.000000  0.624127
    C   C143  0.500000  0.382185  0.000000  0.624125
    C   C144  0.617815  0.500000  0.000000  0.624134
    Cu  Cu9   0.000000  0.000000  0.466220  0.907684
    Cu  Cu10  0.000000  0.000000  0.533780  0.907748
    Cu  Cu11  0.500000  0.500000  0.966220  0.907787
    Cu  Cu12  0.500000  0.500000  0.033780  0.907644
    C   C145  0.684228  0.927957  0.450099  0.476782
    O   O49   0.672915  0.950959  0.421833  -0.495073
    C   C146  0.664021  0.863982  0.457776  0.053743
    C   C147  0.628491  0.831822  0.433781  -0.103457
    C   C148  0.608514  0.772233  0.440895  -0.130021
    C   C149  0.623795  0.744360  0.471969  -0.109693
    C   C150  0.659170  0.776083  0.495960  -0.011238
    C   C151  0.679474  0.835571  0.488937  -0.185987
    H   H65   0.615636  0.852880  0.409315  0.128997
    H   H66   0.580670  0.747395  0.422067  0.112404
    H   H67   0.608080  0.697646  0.477527  0.101538
    H   H68   0.671116  0.754264  0.520371  0.080800
    H   H69   0.707224  0.859076  0.508294  0.097652
    C   C152  0.072044  0.684228  0.450100  0.476741
    O   O50   0.049042  0.672914  0.421833  -0.495069
    C   C153  0.136019  0.664022  0.457776  0.053783
    C   C154  0.168179  0.628492  0.433782  -0.103448
    C   C155  0.227768  0.608516  0.440895  -0.130027
    C   C156  0.255641  0.623797  0.471969  -0.109688
    C   C157  0.223918  0.659171  0.495960  -0.011240
    C   C158  0.164429  0.679475  0.488937  -0.186012
    H   H70   0.147121  0.615637  0.409315  0.128986
    H   H71   0.252606  0.580671  0.422067  0.112408
    H   H72   0.302355  0.608083  0.477527  0.101537
    H   H73   0.245737  0.671118  0.520371  0.080800
    H   H74   0.140925  0.707225  0.508295  0.097664
    C   C159  0.315772  0.072044  0.450099  0.476790
    O   O51   0.327085  0.049042  0.421833  -0.495070
    C   C160  0.335979  0.136019  0.457776  0.053708
    C   C161  0.371509  0.168179  0.433782  -0.103400
    C   C162  0.391486  0.227767  0.440895  -0.130050
    C   C163  0.376204  0.255640  0.471969  -0.109660
    C   C164  0.340830  0.223917  0.495960  -0.011284
    C   C165  0.320526  0.164429  0.488937  -0.185953
    H   H75   0.384363  0.147120  0.409315  0.128969
    H   H76   0.419330  0.252605  0.422067  0.112413
    H   H77   0.391919  0.302355  0.477527  0.101527
    H   H78   0.328883  0.245736  0.520372  0.080810
    H   H79   0.292776  0.140925  0.508295  0.097649
    C   C166  0.927956  0.315772  0.450100  0.476718
    O   O52   0.950959  0.327086  0.421833  -0.495062
    C   C167  0.863981  0.335978  0.457776  0.053779
    C   C168  0.831821  0.371508  0.433782  -0.103436
    C   C169  0.772232  0.391484  0.440895  -0.130036
    C   C170  0.744359  0.376202  0.471969  -0.109676
    C   C171  0.776082  0.340828  0.495960  -0.011248
    C   C172  0.835571  0.320525  0.488937  -0.185999
    H   H80   0.852880  0.384362  0.409315  0.128982
    H   H81   0.747394  0.419328  0.422067  0.112412
    H   H82   0.697644  0.391917  0.477527  0.101531
    H   H83   0.754263  0.328881  0.520371  0.080803
    H   H84   0.859075  0.292775  0.508295  0.097661
    C   C173  0.684228  0.072043  0.549901  0.476723
    O   O53   0.672914  0.049041  0.578167  -0.495052
    C   C174  0.664021  0.136018  0.542224  0.053803
    C   C175  0.628492  0.168178  0.566219  -0.103478
    C   C176  0.608515  0.227767  0.559105  -0.130010
    C   C177  0.623797  0.255640  0.528031  -0.109695
    C   C178  0.659171  0.223917  0.504040  -0.011242
    C   C179  0.679475  0.164429  0.511063  -0.186013
    H   H85   0.615637  0.147120  0.590686  0.128997
    H   H86   0.580671  0.252606  0.577933  0.112402
    H   H87   0.608082  0.302355  0.522473  0.101536
    H   H88   0.671118  0.245736  0.479629  0.080802
    H   H89   0.707225  0.140924  0.491706  0.097663
    C   C180  0.072043  0.315772  0.549900  0.476676
    O   O54   0.049041  0.327087  0.578167  -0.495047
    C   C181  0.136019  0.335978  0.542224  0.053854
    C   C182  0.168179  0.371507  0.566219  -0.103512
    C   C183  0.227768  0.391483  0.559105  -0.129981
    C   C184  0.255641  0.376201  0.528031  -0.109724
    C   C185  0.223918  0.340827  0.504040  -0.011219
    C   C186  0.164429  0.320524  0.511063  -0.186047
    H   H90   0.147121  0.384363  0.590685  0.129009
    H   H91   0.252607  0.419327  0.577933  0.112396
    H   H92   0.302356  0.391915  0.522473  0.101542
    H   H93   0.245737  0.328880  0.479629  0.080802
    H   H94   0.140924  0.292775  0.491706  0.097671
    C   C187  0.315772  0.927957  0.549901  0.476747
    O   O55   0.327086  0.950959  0.578167  -0.495055
    C   C188  0.335978  0.863982  0.542224  0.053765
    C   C189  0.371508  0.831821  0.566219  -0.103461
    C   C190  0.391484  0.772233  0.559105  -0.130008
    C   C191  0.376203  0.744360  0.528031  -0.109681
    C   C192  0.340829  0.776083  0.504040  -0.011256
    C   C193  0.320525  0.835571  0.511063  -0.185987
    H   H95   0.384363  0.852880  0.590685  0.128993
    H   H96   0.419329  0.747394  0.577933  0.112396
    H   H97   0.391917  0.697645  0.522473  0.101534
    H   H98   0.328882  0.754264  0.479629  0.080804
    H   H99   0.292775  0.859076  0.491706  0.097657
    C   C194  0.927957  0.684228  0.549900  0.476656
    O   O56   0.950959  0.672913  0.578167  -0.495036
    C   C195  0.863981  0.664022  0.542224  0.053908
    C   C196  0.831821  0.628493  0.566219  -0.103537
    C   C197  0.772232  0.608517  0.559105  -0.129977
    C   C198  0.744359  0.623799  0.528031  -0.109720
    C   C199  0.776082  0.659173  0.504040  -0.011212
    C   C200  0.835571  0.679476  0.511063  -0.186079
    H   H100  0.852879  0.615637  0.590686  0.128999
    H   H101  0.747393  0.580673  0.577933  0.112398
    H   H102  0.697644  0.608086  0.522473  0.101539
    H   H103  0.754263  0.671121  0.479629  0.080799
    H   H104  0.859076  0.707226  0.491706  0.097681
    C   C201  0.184228  0.427957  0.950099  0.476782
    O   O57   0.172915  0.450959  0.921833  -0.495071
    C   C202  0.164021  0.363981  0.957776  0.053734
    C   C203  0.128492  0.331821  0.933781  -0.103441
    C   C204  0.108515  0.272233  0.940895  -0.130012
    C   C205  0.123796  0.244360  0.971969  -0.109700
    C   C206  0.159170  0.276083  0.995960  -0.011259
    C   C207  0.179474  0.335571  0.988937  -0.185969
    H   H105  0.115637  0.352879  0.909315  0.128990
    H   H106  0.080670  0.247394  0.922067  0.112398
    H   H107  0.108082  0.197645  0.977527  0.101538
    H   H108  0.171117  0.254264  0.020371  0.080804
    H   H109  0.207224  0.359076  0.008294  0.097648
    C   C208  0.572044  0.184228  0.950100  0.476830
    O   O58   0.549041  0.172914  0.921833  -0.495114
    C   C209  0.636019  0.164022  0.957776  0.053542
    C   C210  0.668179  0.128492  0.933782  -0.103317
    C   C211  0.727768  0.108516  0.940895  -0.130008
    C   C212  0.755641  0.123798  0.971969  -0.109764
    C   C213  0.723918  0.159172  0.995960  -0.011232
    C   C214  0.664429  0.179475  0.988937  -0.185888
    H   H110  0.647121  0.115637  0.909315  0.128992
    H   H111  0.752606  0.080671  0.922067  0.112401
    H   H112  0.802355  0.108083  0.977527  0.101560
    H   H113  0.745737  0.171119  0.020371  0.080805
    H   H114  0.640924  0.207225  0.008294  0.097629
    C   C215  0.815772  0.572043  0.950099  0.476792
    O   O59   0.827086  0.549041  0.921833  -0.495075
    C   C216  0.835978  0.636019  0.957775  0.053737
    C   C217  0.871508  0.668179  0.933781  -0.103428
    C   C218  0.891484  0.727768  0.940894  -0.130037
    C   C219  0.876202  0.755641  0.971969  -0.109696
    C   C220  0.840828  0.723918  0.995960  -0.011255
    C   C221  0.820525  0.664429  0.988936  -0.185984
    H   H115  0.884363  0.647121  0.909314  0.128981
    H   H116  0.919328  0.752606  0.922067  0.112417
    H   H117  0.891916  0.802355  0.977526  0.101539
    H   H118  0.828881  0.745737  0.020371  0.080807
    H   H119  0.792775  0.640924  0.008294  0.097651
    C   C222  0.427957  0.815772  0.950099  0.476789
    O   O60   0.450959  0.827086  0.921833  -0.495082
    C   C223  0.363982  0.835979  0.957775  0.053730
    C   C224  0.331821  0.871508  0.933781  -0.103415
    C   C225  0.272233  0.891484  0.940894  -0.130052
    C   C226  0.244360  0.876203  0.971969  -0.109652
    C   C227  0.276083  0.840829  0.995960  -0.011308
    C   C228  0.335571  0.820525  0.988936  -0.185953
    H   H120  0.352880  0.884363  0.909314  0.128976
    H   H121  0.247394  0.919329  0.922067  0.112412
    H   H122  0.197645  0.891917  0.977526  0.101528
    H   H123  0.254264  0.828882  0.020371  0.080828
    H   H124  0.359076  0.792776  0.008294  0.097646
    C   C229  0.184228  0.572043  0.049901  0.476757
    O   O61   0.172914  0.549041  0.078167  -0.495059
    C   C230  0.164022  0.636018  0.042224  0.053736
    C   C231  0.128492  0.668179  0.066219  -0.103437
    C   C232  0.108516  0.727767  0.059105  -0.130026
    C   C233  0.123797  0.755641  0.028031  -0.109661
    C   C234  0.159171  0.723917  0.004040  -0.011317
    C   C235  0.179475  0.664429  0.011063  -0.185938
    H   H125  0.115637  0.647120  0.090685  0.128989
    H   H126  0.080672  0.752606  0.077933  0.112399
    H   H127  0.108083  0.802355  0.022474  0.101540
    H   H128  0.171118  0.745737  0.979629  0.080818
    H   H129  0.207225  0.640924  0.991706  0.097650
    C   C236  0.572043  0.815772  0.049901  0.476744
    O   O62   0.549041  0.827086  0.078167  -0.495057
    C   C237  0.636019  0.835979  0.042224  0.053775
    C   C238  0.668179  0.871508  0.066219  -0.103472
    C   C239  0.727767  0.891485  0.059105  -0.130002
    C   C240  0.755640  0.876204  0.028031  -0.109698
    C   C241  0.723917  0.840829  0.004040  -0.011250
    C   C242  0.664429  0.820526  0.011063  -0.185998
    H   H130  0.647120  0.884363  0.090685  0.128994
    H   H131  0.752606  0.919329  0.077933  0.112398
    H   H132  0.802355  0.891918  0.022473  0.101535
    H   H133  0.745736  0.828883  0.979629  0.080813
    H   H134  0.640924  0.792776  0.991706  0.097658
    C   C243  0.815772  0.427957  0.049901  0.476747
    O   O63   0.827085  0.450959  0.078167  -0.495057
    C   C244  0.835979  0.363981  0.042224  0.053771
    C   C245  0.871508  0.331821  0.066219  -0.103453
    C   C246  0.891485  0.272233  0.059105  -0.130017
    C   C247  0.876203  0.244360  0.028031  -0.109686
    C   C248  0.840829  0.276083  0.004040  -0.011256
    C   C249  0.820525  0.335571  0.011063  -0.186002
    H   H135  0.884363  0.352880  0.090685  0.128990
    H   H136  0.919329  0.247394  0.077933  0.112403
    H   H137  0.891918  0.197645  0.022473  0.101532
    H   H138  0.828882  0.254264  0.979629  0.080805
    H   H139  0.792775  0.359076  0.991706  0.097662
    C   C250  0.427957  0.184228  0.049900  0.476689
    O   O64   0.450959  0.172914  0.078167  -0.495054
    C   C251  0.363981  0.164022  0.042224  0.053809
    C   C252  0.331821  0.128492  0.066219  -0.103484
    C   C253  0.272232  0.108516  0.059105  -0.130007
    C   C254  0.244359  0.123798  0.028031  -0.109695
    C   C255  0.276082  0.159172  0.004040  -0.011245
    C   C256  0.335571  0.179475  0.011063  -0.186012
    H   H140  0.352880  0.115637  0.090685  0.129004
    H   H141  0.247394  0.080672  0.077933  0.112402
    H   H142  0.197644  0.108084  0.022473  0.101536
    H   H143  0.254263  0.171119  0.979629  0.080814
    H   H144  0.359076  0.207225  0.991706  0.097661
