# Generated by REPEAT Assigner based on pymatgen
data_DB0-m2_o1_o3_f0_pcu.sym.1_sqe
_audit_creation_date              2022-05-24
_audit_creation_method            REPEAT_Assigner
_cell_length_a                    10.854622
_cell_length_b                    9.400066
_cell_length_c                    19.356817
_cell_angle_alpha                 90.000000
_cell_angle_beta                  89.995047
_cell_angle_gamma                 90.000000
_cell_volume                      1975.056715
_symmetry_space_group_name_H-M    P1
_symmetry_Int_Tables_number       1
loop_
    _symmetry_equiv_pos_site_id
    _symmetry_equiv_pos_as_xyz
    1  x,y,z
loop_
    _atom_site_type_symbol
    _atom_site_label
    _atom_site_fract_x
    _atom_site_fract_y
    _atom_site_fract_z
    _atom_type_partial_charge
    O   O1   0.320379  0.620568  0.497386  -0.602438
    O   O2   0.679437  0.378906  0.498106  -0.581877
    O   O3   0.678397  0.623102  0.498093  -0.569209
    O   O4   0.321380  0.376210  0.498293  -0.597958
    C   C1   0.871399  0.501652  0.499672  -0.031816
    C   C2   0.127154  0.499281  0.499617  -0.038079
    C   C3   0.262559  0.498596  0.499766  0.671067
    C   C4   0.736287  0.501196  0.500079  0.645577
    O   O5   0.504609  0.621437  0.399757  -0.572518
    O   O6   0.496422  0.378388  0.600876  -0.618776
    O   O7   0.503422  0.622331  0.600564  -0.624840
    O   O8   0.496440  0.376391  0.400079  -0.584785
    C   C5   0.499408  0.499126  0.367664  0.680961
    C   C6   0.499164  0.500468  0.633393  0.682881
    Cu  Cu1  0.499950  0.641774  0.500437  0.897209
    Cu  Cu2  0.498993  0.357288  0.499471  0.894213
    H   H1   0.354021  0.132946  0.431412  0.117896
    H   H2   0.634062  0.866372  0.577190  0.108193
    H   H3   0.628844  0.122330  0.583696  0.107562
    H   H4   0.355925  0.870938  0.427023  0.108643
    C   C7   0.061639  0.372841  0.501056  -0.105920
    C   C8   0.936336  0.628280  0.499434  -0.096854
    C   C9   0.934716  0.374752  0.500887  -0.082207
    C   C10  0.063483  0.626836  0.499446  -0.093465
    H   H5   0.108387  0.271336  0.503218  0.112312
    H   H6   0.888094  0.729033  0.499924  0.102991
    H   H7   0.885825  0.274962  0.502698  0.097754
    H   H8   0.111165  0.727773  0.500096  0.107768
    C   C11  0.499751  0.372993  0.745519  -0.110082
    C   C12  0.501109  0.627486  0.255376  -0.080975
    C   C13  0.500884  0.373945  0.255956  -0.068944
    C   C14  0.501835  0.626957  0.745225  -0.103822
    H   H9   0.500715  0.271628  0.719427  0.119156
    H   H10  0.502007  0.728208  0.282323  0.101488
    H   H11  0.500710  0.273908  0.283557  0.099021
    H   H12  0.506014  0.728002  0.718645  0.115533
    C   C15  0.500260  0.373502  0.816750  -0.157389
    C   C16  0.501744  0.626617  0.183985  -0.150817
    C   C17  0.501514  0.373081  0.184815  -0.161837
    C   C18  0.500576  0.627097  0.816441  -0.159730
    H   H13  0.499064  0.272848  0.843865  0.113828
    H   H14  0.506028  0.726564  0.156428  0.111957
    H   H15  0.499722  0.271773  0.158551  0.111472
    H   H16  0.504139  0.727629  0.843314  0.112342
    C   C19  0.499803  0.500516  0.852702  0.123124
    C   C20  0.500788  0.499386  0.148179  0.107358
    C   C21  0.423152  0.074500  0.459231  -0.017112
    C   C22  0.576408  0.923707  0.541417  0.022632
    C   C23  0.575664  0.070341  0.543464  -0.002189
    C   C24  0.422383  0.928085  0.457926  0.020329
    C   C25  0.499801  0.499852  0.709138  -0.040419
    C   C26  0.499980  0.500616  0.291686  -0.084793
    C   C27  0.432182  0.600114  0.964745  -0.124261
    C   C28  0.568494  0.400560  0.035751  -0.127672
    C   C29  0.431225  0.598581  0.035962  -0.133372
    C   C30  0.568245  0.400936  0.964549  -0.136252
    H   H17  0.376147  0.677144  0.937849  0.104785
    H   H18  0.626273  0.324914  0.062477  0.107240
    H   H19  0.374245  0.675014  0.062835  0.102441
    H   H20  0.624407  0.324147  0.937467  0.105185
    N   N1   0.498236  0.854341  0.499743  -0.088319
    N   N2   0.502395  0.144570  0.501216  -0.052546
    C   C31  0.499705  0.499021  0.072116  0.048446
    C   C32  0.500254  0.500798  0.928562  0.039909
