# Generated by REPEAT Assigner based on pymatgen
data_DB0-m2_o1_o3_f0_nbo.sym.57_sqe
_audit_creation_date              2022-05-24
_audit_creation_method            REPEAT_Assigner
_cell_length_a                    21.495448
_cell_length_b                    21.495448
_cell_length_c                    38.399561
_cell_angle_alpha                 90.000000
_cell_angle_beta                  90.000000
_cell_angle_gamma                 90.000000
_cell_volume                      17742.681573
_symmetry_space_group_name_H-M    P1
_symmetry_Int_Tables_number       1
loop_
    _symmetry_equiv_pos_site_id
    _symmetry_equiv_pos_as_xyz
    1  x,y,z
loop_
    _atom_site_type_symbol
    _atom_site_label
    _atom_site_fract_x
    _atom_site_fract_y
    _atom_site_fract_z
    _atom_type_partial_charge
    O   O1    0.588368  0.050925  0.510450  -0.605074
    O   O2    0.949074  0.588369  0.510450  -0.605139
    O   O3    0.411631  0.949074  0.510450  -0.605090
    O   O4    0.050925  0.411631  0.510450  -0.605121
    O   O5    0.588369  0.949075  0.489550  -0.605119
    O   O6    0.949074  0.411631  0.489550  -0.605089
    O   O7    0.411631  0.050925  0.489550  -0.605101
    O   O8    0.050925  0.588369  0.489550  -0.605088
    O   O9    0.088369  0.550926  0.010450  -0.604967
    O   O10   0.449075  0.088369  0.010450  -0.605016
    O   O11   0.911632  0.449075  0.010450  -0.604985
    O   O12   0.550926  0.911632  0.010450  -0.605023
    O   O13   0.088369  0.449075  0.989550  -0.605011
    O   O14   0.449075  0.911632  0.989550  -0.604991
    O   O15   0.911632  0.550926  0.989550  -0.605018
    O   O16   0.550926  0.088369  0.989550  -0.604999
    C   C1    0.617492  0.000000  0.500000  0.677011
    C   C2    0.000000  0.617492  0.500000  0.676929
    C   C3    0.382508  0.000000  0.500000  0.676995
    C   C4    0.000000  0.382508  0.500000  0.676904
    C   C5    0.117493  0.500001  0.000000  0.676903
    C   C6    0.500000  0.117493  0.000000  0.676761
    C   C7    0.882508  0.500000  0.000000  0.676886
    C   C8    0.500000  0.882508  0.000000  0.676738
    O   O17   0.481330  0.050958  0.549576  -0.615216
    O   O18   0.949041  0.481330  0.549576  -0.615196
    O   O19   0.518670  0.949041  0.549576  -0.615236
    O   O20   0.050959  0.518670  0.549576  -0.615183
    O   O21   0.481330  0.949041  0.450424  -0.615211
    O   O22   0.949041  0.518670  0.450424  -0.615257
    O   O23   0.518670  0.050959  0.450424  -0.615187
    O   O24   0.050958  0.481330  0.450424  -0.615229
    O   O25   0.981330  0.550959  0.049576  -0.615168
    O   O26   0.449042  0.981331  0.049576  -0.615160
    O   O27   0.018670  0.449042  0.049576  -0.615175
    O   O28   0.550959  0.018670  0.049576  -0.615171
    O   O29   0.981331  0.449042  0.950424  -0.615128
    O   O30   0.449042  0.018670  0.950424  -0.615170
    O   O31   0.018670  0.550959  0.950424  -0.615124
    O   O32   0.550959  0.981331  0.950424  -0.615161
    C   C9    0.500000  0.000000  0.565789  0.799863
    C   C10   0.000000  0.500000  0.565789  0.799876
    C   C11   0.500000  0.000000  0.434211  0.799976
    C   C12   0.000000  0.500000  0.434211  0.799914
    C   C13   0.000000  0.500001  0.065789  0.799927
    C   C14   0.500000  0.000001  0.065789  0.799835
    C   C15   0.000000  0.500000  0.934211  0.799799
    C   C16   0.500000  0.000000  0.934211  0.799586
    Cu  Cu1   0.500000  0.060559  0.500000  0.968496
    Cu  Cu2   0.939441  0.500000  0.500000  0.968439
    Cu  Cu3   0.500000  0.939441  0.500000  0.968509
    Cu  Cu4   0.060559  0.500000  0.500000  0.968402
    Cu  Cu5   0.000000  0.560560  0.000000  0.968519
    Cu  Cu6   0.439441  0.000000  0.000000  0.968489
    Cu  Cu7   0.000000  0.439441  0.000000  0.968521
    Cu  Cu8   0.560559  0.000000  0.000000  0.968497
    C   C17   0.500025  0.944528  0.878374  -0.041089
    C   C18   0.055473  0.500025  0.878374  -0.041022
    C   C19   0.499976  0.055473  0.878374  -0.041054
    C   C20   0.944528  0.499976  0.878374  -0.041030
    C   C21   0.500026  0.055473  0.121625  -0.041154
    C   C22   0.055473  0.499975  0.121626  -0.041139
    C   C23   0.499975  0.944528  0.121625  -0.041155
    C   C24   0.944528  0.500026  0.121625  -0.041139
    C   C25   0.000024  0.444528  0.378374  -0.040961
    C   C26   0.555472  0.000024  0.378374  -0.041111
    C   C27   0.999975  0.555473  0.378374  -0.040943
    C   C28   0.444527  0.999976  0.378374  -0.041112
    C   C29   0.000025  0.555473  0.621625  -0.040806
    C   C30   0.555472  0.999974  0.621625  -0.041017
    C   C31   0.999975  0.444528  0.621625  -0.040848
    C   C32   0.444527  0.000025  0.621625  -0.040989
    H   H1    0.499497  0.900987  0.892459  0.113257
    H   H2    0.099014  0.499498  0.892459  0.113206
    H   H3    0.500503  0.099014  0.892458  0.113265
    H   H4    0.900987  0.500503  0.892459  0.113204
    H   H5    0.499499  0.099014  0.107541  0.113271
    H   H6    0.099013  0.500502  0.107541  0.113239
    H   H7    0.500501  0.900987  0.107541  0.113282
    H   H8    0.900987  0.499499  0.107541  0.113247
    H   H9    0.999497  0.400987  0.392458  0.113215
    H   H10   0.599013  0.999497  0.392459  0.113265
    H   H11   0.000502  0.599013  0.392459  0.113215
    H   H12   0.400986  0.000503  0.392458  0.113274
    H   H13   0.999499  0.599013  0.607541  0.113167
    H   H14   0.599013  0.000501  0.607541  0.113243
    H   H15   0.000501  0.400987  0.607541  0.113187
    H   H16   0.400987  0.999499  0.607541  0.113256
    C   C33   0.498682  0.944494  0.842502  -0.302632
    C   C34   0.055506  0.498683  0.842502  -0.302702
    C   C35   0.501318  0.055506  0.842502  -0.302636
    C   C36   0.944494  0.501318  0.842502  -0.302700
    C   C37   0.498684  0.055507  0.157498  -0.302682
    C   C38   0.055506  0.501317  0.157498  -0.302694
    C   C39   0.501317  0.944494  0.157498  -0.302734
    C   C40   0.944494  0.498684  0.157498  -0.302713
    C   C41   0.998682  0.444494  0.342502  -0.302874
    C   C42   0.555506  0.998682  0.342502  -0.302789
    C   C43   0.001317  0.555506  0.342502  -0.302880
    C   C44   0.444494  0.001318  0.342502  -0.302805
    C   C45   0.998683  0.555506  0.657498  -0.302901
    C   C46   0.555506  0.001316  0.657498  -0.302749
    C   C47   0.001317  0.444494  0.657498  -0.302859
    C   C48   0.444494  0.998683  0.657498  -0.302809
    H   H17   0.496212  0.900648  0.828804  0.135667
    H   H18   0.099353  0.496212  0.828804  0.135560
    H   H19   0.503789  0.099353  0.828803  0.135660
    H   H20   0.900648  0.503789  0.828804  0.135551
    H   H21   0.496214  0.099353  0.171196  0.135610
    H   H22   0.099352  0.503787  0.171196  0.135623
    H   H23   0.503787  0.900648  0.171196  0.135630
    H   H24   0.900648  0.496214  0.171196  0.135638
    H   H25   0.996211  0.400648  0.328803  0.135637
    H   H26   0.599352  0.996212  0.328804  0.135624
    H   H27   0.003788  0.599353  0.328804  0.135636
    H   H28   0.400648  0.003789  0.328803  0.135623
    H   H29   0.996213  0.599353  0.671196  0.135555
    H   H30   0.599352  0.003786  0.671196  0.135703
    H   H31   0.003787  0.400648  0.671196  0.135559
    H   H32   0.400647  0.996213  0.671196  0.135715
    C   C49   0.500000  0.000000  0.824295  0.437400
    C   C50   0.000000  0.500000  0.824295  0.437568
    C   C51   0.500000  0.000000  0.175705  0.437770
    C   C52   0.000000  0.500001  0.175705  0.437749
    C   C53   0.000000  0.500000  0.324295  0.437915
    C   C54   0.500000  0.000000  0.324295  0.437949
    C   C55   0.000000  0.500000  0.675705  0.437719
    C   C56   0.500000  0.000000  0.675705  0.437719
    C   C57   0.500000  0.000000  0.896301  -0.158328
    C   C58   0.000000  0.500000  0.896301  -0.158616
    C   C59   0.500000  0.000000  0.103699  -0.158538
    C   C60   0.000000  0.500001  0.103699  -0.158547
    C   C61   0.000000  0.500000  0.396301  -0.158702
    C   C62   0.500000  0.000000  0.396301  -0.158596
    C   C63   0.000000  0.500000  0.603699  -0.158826
    C   C64   0.500000  0.000000  0.603699  -0.158452
    C   C65   0.458975  0.037647  0.768004  0.116974
    C   C66   0.962353  0.458975  0.768004  0.117015
    C   C67   0.541025  0.962353  0.768004  0.117079
    C   C68   0.037647  0.541025  0.768004  0.116998
    C   C69   0.458975  0.962354  0.231996  0.117309
    C   C70   0.962353  0.541026  0.231996  0.117036
    C   C71   0.541026  0.037647  0.231996  0.117102
    C   C72   0.037646  0.458975  0.231996  0.117044
    C   C73   0.958975  0.537647  0.268004  0.117177
    C   C74   0.462353  0.958975  0.268003  0.117041
    C   C75   0.041025  0.462353  0.268004  0.117200
    C   C76   0.537647  0.041025  0.268004  0.117193
    C   C77   0.958975  0.462354  0.731996  0.117066
    C   C78   0.462354  0.041025  0.731996  0.117508
    C   C79   0.041025  0.537647  0.731996  0.117047
    C   C80   0.537646  0.958974  0.731996  0.117322
    C   C81   0.500000  0.000000  0.713973  -0.244922
    C   C82   0.000000  0.500000  0.713973  -0.244825
    C   C83   0.500000  0.000000  0.286027  -0.245008
    C   C84   0.000000  0.500000  0.286027  -0.245033
    C   C85   0.000000  0.500000  0.213973  -0.244915
    C   C86   0.500000  0.000000  0.213973  -0.245000
    C   C87   0.000000  0.500000  0.786027  -0.244787
    C   C88   0.500000  0.000000  0.786027  -0.244548
    C   C89   0.717789  0.960696  0.478040  -0.087000
    C   C90   0.039303  0.717789  0.478040  -0.086985
    C   C91   0.282210  0.039303  0.478040  -0.087025
    C   C92   0.960696  0.282210  0.478040  -0.086991
    C   C93   0.717789  0.039304  0.521960  -0.086967
    C   C94   0.039304  0.282210  0.521960  -0.087000
    C   C95   0.282210  0.960696  0.521960  -0.086968
    C   C96   0.960696  0.717789  0.521960  -0.087003
    C   C97   0.217790  0.460697  0.978040  -0.087081
    C   C98   0.539304  0.217790  0.978040  -0.087140
    C   C99   0.782211  0.539304  0.978040  -0.087119
    C   C100  0.460697  0.782211  0.978040  -0.087141
    C   C101  0.217790  0.539304  0.021960  -0.087055
    C   C102  0.539304  0.782211  0.021960  -0.087115
    C   C103  0.782211  0.460697  0.021960  -0.087075
    C   C104  0.460697  0.217790  0.021960  -0.087131
    H   H33   0.693250  0.929989  0.460493  0.126256
    H   H34   0.070010  0.693250  0.460493  0.126243
    H   H35   0.306750  0.070010  0.460493  0.126254
    H   H36   0.929989  0.306750  0.460493  0.126240
    H   H37   0.693250  0.070011  0.539507  0.126221
    H   H38   0.070011  0.306750  0.539507  0.126268
    H   H39   0.306750  0.929989  0.539507  0.126218
    H   H40   0.929989  0.693250  0.539507  0.126274
    H   H41   0.193250  0.429990  0.960493  0.126285
    H   H42   0.570011  0.193251  0.960493  0.126287
    H   H43   0.806750  0.570011  0.960493  0.126302
    H   H44   0.429990  0.806750  0.960493  0.126285
    H   H45   0.193250  0.570011  0.039507  0.126269
    H   H46   0.570011  0.806751  0.039507  0.126319
    H   H47   0.806750  0.429990  0.039507  0.126278
    H   H48   0.429990  0.193250  0.039507  0.126329
    C   C105  0.781905  0.961478  0.477608  -0.168137
    C   C106  0.038522  0.781905  0.477608  -0.168202
    C   C107  0.218095  0.038522  0.477608  -0.168123
    C   C108  0.961478  0.218095  0.477608  -0.168162
    C   C109  0.781905  0.038522  0.522392  -0.168272
    C   C110  0.038522  0.218095  0.522392  -0.168274
    C   C111  0.218095  0.961478  0.522392  -0.168279
    C   C112  0.961478  0.781905  0.522392  -0.168316
    C   C113  0.281905  0.461479  0.977608  -0.168115
    C   C114  0.538522  0.281906  0.977608  -0.168059
    C   C115  0.718095  0.538522  0.977608  -0.168130
    C   C116  0.461478  0.718095  0.977608  -0.168025
    C   C117  0.281905  0.538523  0.022392  -0.168066
    C   C118  0.538522  0.718095  0.022392  -0.168016
    C   C119  0.718095  0.461478  0.022392  -0.168081
    C   C120  0.461478  0.281906  0.022392  -0.168036
    H   H49   0.806414  0.930705  0.460087  0.139914
    H   H50   0.069295  0.806414  0.460086  0.139933
    H   H51   0.193585  0.069295  0.460087  0.139911
    H   H52   0.930705  0.193585  0.460087  0.139923
    H   H53   0.806414  0.069295  0.539913  0.139942
    H   H54   0.069295  0.193585  0.539913  0.139908
    H   H55   0.193585  0.930705  0.539913  0.139946
    H   H56   0.930705  0.806414  0.539913  0.139916
    H   H57   0.306415  0.430706  0.960086  0.139935
    H   H58   0.569295  0.306415  0.960086  0.139954
    H   H59   0.693586  0.569296  0.960087  0.139947
    H   H60   0.430705  0.693586  0.960087  0.139940
    H   H61   0.306415  0.569296  0.039913  0.139941
    H   H62   0.569295  0.693586  0.039913  0.139936
    H   H63   0.693586  0.430705  0.039913  0.139956
    H   H64   0.430705  0.306415  0.039913  0.139952
    C   C121  0.814204  0.000000  0.500000  0.057096
    C   C122  0.000000  0.814204  0.500000  0.057115
    C   C123  0.185795  0.000000  0.500000  0.057100
    C   C124  0.000000  0.185795  0.500000  0.057051
    C   C125  0.314205  0.500001  0.000000  0.057071
    C   C126  0.500000  0.314205  0.000000  0.056993
    C   C127  0.685796  0.500000  0.000000  0.057088
    C   C128  0.500000  0.685796  0.000000  0.056948
    C   C129  0.685505  0.000000  0.500000  -0.002734
    C   C130  0.000000  0.685505  0.500000  -0.002592
    C   C131  0.314495  0.000000  0.500000  -0.002702
    C   C132  0.000000  0.314495  0.500000  -0.002576
    C   C133  0.185505  0.500001  0.000000  -0.002594
    C   C134  0.500000  0.185506  0.000000  -0.002503
    C   C135  0.814495  0.500000  0.000000  -0.002551
    C   C136  0.500000  0.814495  0.000000  -0.002503
    O   O33   0.981267  0.088598  0.471547  -0.594389
    O   O34   0.911402  0.981267  0.471547  -0.594326
    O   O35   0.018732  0.911402  0.471547  -0.594376
    O   O36   0.088598  0.018733  0.471547  -0.594328
    O   O37   0.981267  0.911402  0.528452  -0.594356
    O   O38   0.911402  0.018733  0.528452  -0.594379
    O   O39   0.018733  0.088598  0.528452  -0.594347
    O   O40   0.088598  0.981267  0.528452  -0.594369
    O   O41   0.481268  0.588599  0.971547  -0.594381
    O   O42   0.411402  0.481268  0.971547  -0.594358
    O   O43   0.518733  0.411402  0.971547  -0.594369
    O   O44   0.588599  0.518733  0.971547  -0.594354
    O   O45   0.481267  0.411402  0.028452  -0.594263
    O   O46   0.411402  0.518733  0.028452  -0.594306
    O   O47   0.518733  0.588599  0.028452  -0.594266
    O   O48   0.588599  0.481268  0.028452  -0.594305
    C   C137  0.000000  0.117763  0.500000  0.675101
    C   C138  0.882237  0.000000  0.500000  0.675058
    C   C139  0.000000  0.882237  0.500000  0.675055
    C   C140  0.117763  0.000000  0.500000  0.675051
    C   C141  0.500000  0.617764  0.000000  0.674944
    C   C142  0.382237  0.500001  0.000000  0.674912
    C   C143  0.500000  0.382237  0.000000  0.674909
    C   C144  0.617763  0.500000  0.000000  0.674912
    Cu  Cu9   0.000000  0.000000  0.466178  0.943121
    Cu  Cu10  0.000000  0.000000  0.533822  0.942947
    Cu  Cu11  0.500000  0.500001  0.966178  0.943039
    Cu  Cu12  0.500000  0.500001  0.033822  0.943060
    O   O49   0.415172  0.069053  0.785903  -0.167547
    C   C145  0.352768  0.060011  0.780148  -0.035229
    C   C146  0.315003  0.097370  0.805173  0.284131
    C   C147  0.342257  0.137209  0.829094  -0.242280
    C   C148  0.305486  0.170690  0.851774  -0.076820
    C   C149  0.241692  0.164805  0.850700  -0.162392
    C   C150  0.214491  0.125400  0.826867  -0.077803
    C   C151  0.251081  0.091821  0.804172  -0.262077
    H   H65   0.341824  0.010037  0.783845  0.052609
    H   H66   0.339773  0.073770  0.753353  0.031948
    H   H67   0.392035  0.143278  0.830564  0.131783
    H   H68   0.326802  0.201723  0.870433  0.108590
    H   H69   0.213017  0.191150  0.868509  0.116312
    H   H70   0.164444  0.120796  0.825969  0.115174
    H   H71   0.229530  0.060927  0.785523  0.125142
    O   O50   0.930948  0.415172  0.785903  -0.167520
    C   C152  0.939989  0.352768  0.780149  -0.034610
    C   C153  0.902630  0.315003  0.805173  0.283966
    C   C154  0.862792  0.342257  0.829094  -0.242284
    C   C155  0.829311  0.305485  0.851774  -0.076879
    C   C156  0.835196  0.241692  0.850700  -0.162470
    C   C157  0.874600  0.214491  0.826867  -0.077899
    C   C158  0.908180  0.251081  0.804172  -0.262002
    H   H72   0.989964  0.341824  0.783845  0.052319
    H   H73   0.926231  0.339773  0.753353  0.031642
    H   H74   0.856723  0.392035  0.830564  0.131805
    H   H75   0.798277  0.326802  0.870433  0.108514
    H   H76   0.808850  0.213017  0.868509  0.116231
    H   H77   0.879205  0.164444  0.825969  0.115074
    H   H78   0.939074  0.229530  0.785523  0.125059
    O   O51   0.584828  0.930948  0.785903  -0.167551
    C   C159  0.647232  0.939989  0.780148  -0.035416
    C   C160  0.684997  0.902630  0.805172  0.284198
    C   C161  0.657744  0.862792  0.829094  -0.242284
    C   C162  0.694515  0.829310  0.851774  -0.076788
    C   C163  0.758308  0.835196  0.850699  -0.162391
    C   C164  0.785510  0.874600  0.826867  -0.077766
    C   C165  0.748919  0.908179  0.804172  -0.262112
    H   H79   0.658176  0.989963  0.783845  0.052690
    H   H80   0.660227  0.926230  0.753353  0.032011
    H   H81   0.607966  0.856722  0.830564  0.131787
    H   H82   0.673198  0.798277  0.870433  0.108599
    H   H83   0.786983  0.808850  0.868509  0.116336
    H   H84   0.835556  0.879204  0.825969  0.115211
    H   H85   0.770470  0.939073  0.785523  0.125175
    O   O52   0.069052  0.584828  0.785903  -0.167508
    C   C166  0.060011  0.647233  0.780148  -0.034645
    C   C167  0.097370  0.684997  0.805172  0.284004
    C   C168  0.137208  0.657744  0.829094  -0.242322
    C   C169  0.170690  0.694515  0.851774  -0.076898
    C   C170  0.164804  0.758309  0.850699  -0.162444
    C   C171  0.125400  0.785510  0.826867  -0.077843
    C   C172  0.091820  0.748919  0.804172  -0.262041
    H   H86   0.010037  0.658176  0.783845  0.052327
    H   H87   0.073769  0.660228  0.753353  0.031644
    H   H88   0.143278  0.607966  0.830564  0.131802
    H   H89   0.201723  0.673199  0.870432  0.108544
    H   H90   0.191150  0.786984  0.868509  0.116196
    H   H91   0.120795  0.835557  0.825968  0.115046
    H   H92   0.060927  0.770470  0.785523  0.125065
    O   O53   0.415171  0.930949  0.214097  -0.167868
    C   C173  0.352767  0.939991  0.219851  -0.034317
    C   C174  0.315002  0.902632  0.194827  0.283799
    C   C175  0.342255  0.862793  0.170906  -0.241991
    C   C176  0.305483  0.829312  0.148226  -0.077314
    C   C177  0.241690  0.835199  0.149301  -0.162139
    C   C178  0.214489  0.874604  0.173133  -0.077969
    C   C179  0.251080  0.908183  0.195828  -0.261917
    H   H93   0.341824  0.989966  0.216154  0.052219
    H   H94   0.339772  0.926233  0.246647  0.031660
    H   H95   0.392033  0.856723  0.169436  0.131747
    H   H96   0.326799  0.798278  0.129568  0.108720
    H   H97   0.213015  0.808853  0.131491  0.116142
    H   H98   0.164442  0.879209  0.174031  0.115126
    H   H99   0.229530  0.939077  0.214476  0.125082
    O   O54   0.930948  0.584829  0.214097  -0.167646
    C   C180  0.939991  0.647233  0.219851  -0.034905
    C   C181  0.902632  0.684999  0.194828  0.284034
    C   C182  0.862793  0.657746  0.170906  -0.242065
    C   C183  0.829312  0.694517  0.148226  -0.077102
    C   C184  0.835198  0.758311  0.149301  -0.162447
    C   C185  0.874603  0.785512  0.173133  -0.077911
    C   C186  0.908182  0.748920  0.195828  -0.262005
    H   H100  0.989965  0.658177  0.216155  0.052433
    H   H101  0.926232  0.660228  0.246647  0.031773
    H   H102  0.856723  0.607968  0.169436  0.131727
    H   H103  0.798278  0.673201  0.129568  0.108640
    H   H104  0.808852  0.786986  0.131492  0.116236
    H   H105  0.879208  0.835558  0.174032  0.115137
    H   H106  0.939076  0.770471  0.214477  0.125083
    O   O55   0.584829  0.069052  0.214097  -0.167657
    C   C187  0.647233  0.060009  0.219851  -0.034839
    C   C188  0.684999  0.097368  0.194828  0.284001
    C   C189  0.657746  0.137207  0.170906  -0.242037
    C   C190  0.694517  0.170688  0.148226  -0.077298
    C   C191  0.758311  0.164802  0.149301  -0.162177
    C   C192  0.785512  0.125397  0.173133  -0.077971
    C   C193  0.748920  0.091817  0.195828  -0.261978
    H   H107  0.658176  0.010035  0.216155  0.052400
    H   H108  0.660228  0.073767  0.246647  0.031783
    H   H109  0.607968  0.143277  0.169436  0.131742
    H   H110  0.673202  0.201722  0.129568  0.108724
    H   H111  0.786986  0.191148  0.131492  0.116154
    H   H112  0.835558  0.120791  0.174032  0.115143
    H   H113  0.770471  0.060923  0.214477  0.125087
    O   O56   0.069051  0.415172  0.214097  -0.167636
    C   C194  0.060009  0.352767  0.219851  -0.035049
    C   C195  0.097368  0.315002  0.194827  0.284181
    C   C196  0.137207  0.342255  0.170906  -0.242221
    C   C197  0.170688  0.305484  0.148226  -0.076910
    C   C198  0.164802  0.241690  0.149300  -0.162555
    C   C199  0.125397  0.214489  0.173133  -0.077873
    C   C200  0.091817  0.251081  0.195828  -0.262083
    H   H114  0.010035  0.341824  0.216154  0.052485
    H   H115  0.073767  0.339772  0.246647  0.031804
    H   H116  0.143277  0.392033  0.169436  0.131780
    H   H117  0.201722  0.326800  0.129568  0.108587
    H   H118  0.191147  0.213015  0.131491  0.116306
    H   H119  0.120791  0.164443  0.174031  0.115151
    H   H120  0.060923  0.229530  0.214476  0.125132
    O   O57   0.915172  0.569053  0.285903  -0.167742
    C   C201  0.852767  0.560011  0.280148  -0.034928
    C   C202  0.815003  0.597370  0.305172  0.284232
    C   C203  0.842256  0.637208  0.329094  -0.242343
    C   C204  0.805485  0.670689  0.351774  -0.076794
    C   C205  0.741691  0.664804  0.350699  -0.162505
    C   C206  0.714490  0.625400  0.326867  -0.077919
    C   C207  0.751081  0.591820  0.304172  -0.262025
    H   H121  0.841824  0.510037  0.283845  0.052452
    H   H122  0.839772  0.573770  0.253353  0.031742
    H   H123  0.892034  0.643278  0.330564  0.131832
    H   H124  0.826801  0.701723  0.370433  0.108552
    H   H125  0.713016  0.691150  0.368509  0.116283
    H   H126  0.664443  0.620795  0.325968  0.115151
    H   H127  0.729530  0.560927  0.285523  0.125008
    O   O58   0.430948  0.915172  0.285903  -0.167727
    C   C208  0.439989  0.852768  0.280148  -0.034754
    C   C209  0.402630  0.815003  0.305172  0.284075
    C   C210  0.362792  0.842257  0.329094  -0.242294
    C   C211  0.329310  0.805485  0.351774  -0.076942
    C   C212  0.335196  0.741692  0.350699  -0.162383
    C   C213  0.374600  0.714491  0.326867  -0.077922
    C   C214  0.408180  0.751081  0.304172  -0.261932
    H   H128  0.489963  0.841824  0.283845  0.052394
    H   H129  0.426230  0.839773  0.253353  0.031700
    H   H130  0.356722  0.892035  0.330564  0.131845
    H   H131  0.298277  0.826802  0.370432  0.108620
    H   H132  0.308850  0.713017  0.368509  0.116261
    H   H133  0.379205  0.664444  0.325968  0.115141
    H   H134  0.439073  0.729530  0.285523  0.124996
    O   O59   0.084828  0.430948  0.285903  -0.167737
    C   C215  0.147232  0.439990  0.280148  -0.034986
    C   C216  0.184997  0.402630  0.305172  0.284244
    C   C217  0.157744  0.362792  0.329094  -0.242332
    C   C218  0.194515  0.329311  0.351774  -0.076805
    C   C219  0.258308  0.335196  0.350700  -0.162503
    C   C220  0.285510  0.374601  0.326867  -0.077917
    C   C221  0.248919  0.408180  0.304172  -0.262023
    H   H135  0.158176  0.489964  0.283845  0.052472
    H   H136  0.160227  0.426231  0.253353  0.031748
    H   H137  0.107966  0.356723  0.330564  0.131830
    H   H138  0.173198  0.298277  0.370433  0.108557
    H   H139  0.286983  0.308851  0.368509  0.116301
    H   H140  0.335556  0.379206  0.325969  0.115155
    H   H141  0.270470  0.439074  0.285523  0.125010
    O   O60   0.569053  0.084828  0.285903  -0.167813
    C   C222  0.560011  0.147233  0.280149  -0.034710
    C   C223  0.597370  0.184997  0.305173  0.284093
    C   C224  0.637209  0.157744  0.329094  -0.242335
    C   C225  0.670690  0.194515  0.351774  -0.076873
    C   C226  0.664805  0.258308  0.350700  -0.162395
    C   C227  0.625400  0.285510  0.326867  -0.077911
    C   C228  0.591821  0.248919  0.304172  -0.261939
    H   H142  0.510037  0.158176  0.283845  0.052381
    H   H143  0.573770  0.160227  0.253353  0.031697
    H   H144  0.643278  0.107966  0.330564  0.131859
    H   H145  0.701723  0.173198  0.370433  0.108580
    H   H146  0.691150  0.286983  0.368509  0.116265
    H   H147  0.620796  0.335556  0.325969  0.115144
    H   H148  0.560927  0.270470  0.285523  0.124981
    O   O61   0.915172  0.430949  0.714097  -0.167582
    C   C229  0.852767  0.439991  0.719851  -0.034627
    C   C230  0.815002  0.402632  0.694828  0.284068
    C   C231  0.842255  0.362793  0.670906  -0.242277
    C   C232  0.805483  0.329312  0.648226  -0.077035
    C   C233  0.741690  0.335198  0.649301  -0.162301
    C   C234  0.714489  0.374603  0.673133  -0.077947
    C   C235  0.751080  0.408182  0.695828  -0.261994
    H   H149  0.841824  0.489965  0.716155  0.052333
    H   H150  0.839772  0.426233  0.746647  0.031581
    H   H151  0.892033  0.356723  0.669436  0.131799
    H   H152  0.826799  0.298278  0.629568  0.108617
    H   H153  0.713015  0.308852  0.631492  0.116200
    H   H154  0.664442  0.379208  0.674031  0.115087
    H   H155  0.729530  0.439076  0.714477  0.124964
    O   O62   0.430949  0.084829  0.714097  -0.167935
    C   C236  0.439991  0.147233  0.719851  -0.034646
    C   C237  0.402632  0.184998  0.694827  0.283951
    C   C238  0.362793  0.157745  0.670906  -0.242121
    C   C239  0.329312  0.194517  0.648226  -0.077002
    C   C240  0.335198  0.258310  0.649301  -0.162290
    C   C241  0.374603  0.285511  0.673133  -0.077845
    C   C242  0.408183  0.248920  0.695828  -0.261958
    H   H156  0.489966  0.158176  0.716154  0.052449
    H   H157  0.426233  0.160228  0.746647  0.031768
    H   H158  0.356723  0.107967  0.669436  0.131773
    H   H159  0.298278  0.173201  0.629568  0.108665
    H   H160  0.308853  0.286985  0.631491  0.116341
    H   H161  0.379209  0.335558  0.674031  0.115184
    H   H162  0.439077  0.270470  0.714476  0.125043
    O   O63   0.084829  0.569052  0.714097  -0.167541
    C   C243  0.147233  0.560009  0.719851  -0.034676
    C   C244  0.184998  0.597368  0.694827  0.284087
    C   C245  0.157745  0.637207  0.670906  -0.242283
    C   C246  0.194517  0.670688  0.648226  -0.077004
    C   C247  0.258310  0.664802  0.649301  -0.162324
    C   C248  0.285511  0.625397  0.673133  -0.077958
    C   C249  0.248920  0.591818  0.695828  -0.261983
    H   H163  0.158176  0.510035  0.716154  0.052350
    H   H164  0.160228  0.573767  0.746647  0.031598
    H   H165  0.107967  0.643277  0.669436  0.131800
    H   H166  0.173201  0.701722  0.629568  0.108615
    H   H167  0.286985  0.691148  0.631491  0.116211
    H   H168  0.335558  0.620792  0.674031  0.115097
    H   H169  0.270471  0.560924  0.714476  0.124976
    O   O64   0.569051  0.915171  0.714097  -0.167720
    C   C250  0.560009  0.852767  0.719851  -0.035247
    C   C251  0.597368  0.815001  0.694828  0.284149
    C   C252  0.637207  0.842254  0.670906  -0.242199
    C   C253  0.670688  0.805483  0.648226  -0.076872
    C   C254  0.664802  0.741689  0.649301  -0.162412
    C   C255  0.625397  0.714488  0.673133  -0.077808
    C   C256  0.591817  0.751080  0.695828  -0.262012
    H   H170  0.510034  0.841824  0.716155  0.052662
    H   H171  0.573767  0.839772  0.746647  0.031911
    H   H172  0.643277  0.892032  0.669436  0.131777
    H   H173  0.701722  0.826798  0.629568  0.108657
    H   H174  0.691147  0.713014  0.631492  0.116401
    H   H175  0.620791  0.664442  0.674032  0.115227
    H   H176  0.560923  0.729529  0.714477  0.125071
