# Generated by REPEAT Assigner based on pymatgen
data_DB0-m2_o1_o2_f0_pcu.sym.29_sqe
_audit_creation_date              2022-05-24
_audit_creation_method            REPEAT_Assigner
_cell_length_a                    10.862532
_cell_length_b                    9.409288
_cell_length_c                    15.107942
_cell_angle_alpha                 90.000000
_cell_angle_beta                  90.005968
_cell_angle_gamma                 90.000000
_cell_volume                      1544.162980
_symmetry_space_group_name_H-M    P1
_symmetry_Int_Tables_number       1
loop_
    _symmetry_equiv_pos_site_id
    _symmetry_equiv_pos_as_xyz
    1  x,y,z
loop_
    _atom_site_type_symbol
    _atom_site_label
    _atom_site_fract_x
    _atom_site_fract_y
    _atom_site_fract_z
    _atom_type_partial_charge
    O   O1   0.321421  0.621646  0.501629  -0.573009
    O   O2   0.679141  0.378436  0.497073  -0.582746
    O   O3   0.679206  0.622377  0.505265  -0.584638
    O   O4   0.321332  0.377236  0.496279  -0.580845
    N   N1   0.500426  0.854752  0.500502  -0.024597
    N   N2   0.500763  0.145127  0.499449  0.074515
    C   C1   0.263518  0.499510  0.498665  0.711815
    C   C2   0.737110  0.500321  0.501408  0.713220
    O   O5   0.507244  0.622070  0.371767  -0.607111
    O   O6   0.495532  0.377667  0.628486  -0.610507
    O   O7   0.502014  0.622021  0.628995  -0.498852
    O   O8   0.496444  0.378022  0.371237  -0.510954
    C   C3   0.502184  0.500209  0.329987  0.671072
    C   C4   0.498303  0.499690  0.670242  0.654165
    Cu  Cu1  0.500326  0.642091  0.500352  0.849686
    Cu  Cu2  0.500295  0.357787  0.499844  0.822925
    H   H1   0.373798  0.129129  0.394615  0.194270
    H   H2   0.621422  0.870785  0.608972  0.145345
    H   H3   0.621596  0.130967  0.608205  0.121802
    H   H4   0.373052  0.868891  0.395708  0.083228
    C   C5   0.429609  0.072783  0.442130  -0.166249
    C   C6   0.566800  0.927112  0.560713  -0.033462
    C   C7   0.566712  0.073743  0.560348  -0.037345
    C   C8   0.429379  0.926155  0.442669  0.083791
    C   C9   0.063039  0.413447  0.441731  0.060911
    C   C10  0.937722  0.586334  0.558336  -0.012497
    C   C11  0.936097  0.413290  0.442758  -0.030053
    C   C12  0.064681  0.586368  0.557331  0.044725
    C   C13  0.536328  0.620268  0.095416  -0.160141
    C   C14  0.526501  0.377144  0.904650  -0.134008
    C   C15  0.471999  0.622644  0.904672  -0.180022
    C   C16  0.465541  0.380369  0.095745  -0.171104
    H   H5   0.567612  0.714474  0.061339  0.117531
    H   H6   0.552167  0.280537  0.938536  0.112862
    H   H7   0.447073  0.719482  0.938590  0.122479
    H   H8   0.433511  0.286193  0.062007  0.119075
    C   C17  0.535928  0.620705  0.186719  -0.076017
    C   C18  0.524520  0.376601  0.813383  -0.138373
    C   C19  0.472472  0.622678  0.813398  -0.026124
    C   C20  0.467411  0.380058  0.186979  -0.026895
    H   H9   0.564861  0.715586  0.221262  0.105565
    H   H10  0.546646  0.279414  0.778751  0.128909
    H   H11  0.450133  0.719815  0.778785  0.085715
    H   H12  0.438857  0.285211  0.221688  0.083908
    C   C21  0.502031  0.500378  0.232984  -0.070923
    C   C22  0.498143  0.499525  0.767248  -0.039391
    C   C23  0.500567  0.500257  0.048949  0.095487
    C   C24  0.499685  0.500030  0.951297  0.102109
    C   C25  0.872382  0.499968  0.500940  -0.072798
    C   C26  0.128323  0.499815  0.499109  -0.113550
    C   C27  0.125361  0.329579  0.376233  0.287414
    N   N3   0.175014  0.262257  0.323037  -0.373144
    C   C28  0.875462  0.670301  0.623814  0.343422
    N   N4   0.825772  0.737724  0.676942  -0.400041
    C   C29  0.871775  0.327390  0.379229  0.364335
    N   N5   0.819966  0.258168  0.328050  -0.399365
    C   C30  0.129260  0.671736  0.620999  0.307479
    N   N6   0.181313  0.740452  0.672313  -0.372995
