# Generated by REPEAT Assigner based on pymatgen
data_DB0-m2_o1_o3_f0_nbo.sym.20
_audit_creation_date              2022-05-24
_audit_creation_method            REPEAT_Assigner
_cell_length_a                    21.576063
_cell_length_b                    21.576063
_cell_length_c                    38.498408
_cell_angle_alpha                 90.000000
_cell_angle_beta                  90.000000
_cell_angle_gamma                 90.000000
_cell_volume                      17922.028943
_symmetry_space_group_name_H-M    P1
_symmetry_Int_Tables_number       1
loop_
    _symmetry_equiv_pos_site_id
    _symmetry_equiv_pos_as_xyz
    1  x,y,z
loop_
    _atom_site_type_symbol
    _atom_site_label
    _atom_site_fract_x
    _atom_site_fract_y
    _atom_site_fract_z
    _atom_type_partial_charge
    O   O1    0.588320  0.051088  0.509690  -0.566411
    O   O2    0.948912  0.588320  0.509690  -0.566387
    O   O3    0.411680  0.948912  0.509690  -0.566401
    O   O4    0.051088  0.411680  0.509690  -0.566418
    O   O5    0.588320  0.948912  0.490310  -0.566393
    O   O6    0.948912  0.411680  0.490310  -0.566394
    O   O7    0.411680  0.051088  0.490310  -0.566419
    O   O8    0.051088  0.588320  0.490310  -0.566410
    O   O9    0.088320  0.551088  0.009690  -0.566427
    O   O10   0.448912  0.088320  0.009690  -0.566423
    O   O11   0.911680  0.448912  0.009690  -0.566406
    O   O12   0.551088  0.911680  0.009690  -0.566412
    O   O13   0.088320  0.448912  0.990310  -0.566411
    O   O14   0.448912  0.911680  0.990310  -0.566412
    O   O15   0.911680  0.551088  0.990310  -0.566421
    O   O16   0.551088  0.088320  0.990310  -0.566418
    C   C1    0.617324  0.000000  0.500000  0.658992
    C   C2    0.000000  0.617324  0.500000  0.658990
    C   C3    0.382676  0.000000  0.500000  0.659003
    C   C4    0.000000  0.382676  0.500000  0.659000
    C   C5    0.117324  0.500000  0.000000  0.659024
    C   C6    0.500000  0.117324  0.000000  0.659021
    C   C7    0.882676  0.500000  0.000000  0.659045
    C   C8    0.500000  0.882676  0.000000  0.659038
    O   O17   0.482883  0.051159  0.549620  -0.597054
    O   O18   0.948841  0.482883  0.549620  -0.597042
    O   O19   0.517117  0.948841  0.549620  -0.597027
    O   O20   0.051159  0.517117  0.549620  -0.597045
    O   O21   0.482883  0.948841  0.450380  -0.597033
    O   O22   0.948841  0.517117  0.450380  -0.597033
    O   O23   0.517117  0.051159  0.450380  -0.597052
    O   O24   0.051159  0.482883  0.450380  -0.597048
    O   O25   0.982883  0.551159  0.049620  -0.597038
    O   O26   0.448841  0.982883  0.049620  -0.597047
    O   O27   0.017117  0.448841  0.049620  -0.597029
    O   O28   0.551159  0.017117  0.049620  -0.597047
    O   O29   0.982883  0.448841  0.950380  -0.597021
    O   O30   0.448841  0.017117  0.950380  -0.597034
    O   O31   0.017117  0.551159  0.950380  -0.597048
    O   O32   0.551159  0.982883  0.950380  -0.597028
    C   C9    0.500000  0.000000  0.565870  0.663609
    C   C10   0.000000  0.500000  0.565870  0.663610
    C   C11   0.500000  0.000000  0.434130  0.663609
    C   C12   0.000000  0.500000  0.434130  0.663611
    C   C13   0.000000  0.500000  0.065870  0.663574
    C   C14   0.500000  0.000000  0.065870  0.663608
    C   C15   0.000000  0.500000  0.934130  0.663573
    C   C16   0.500000  0.000000  0.934130  0.663567
    Cu  Cu1   0.500000  0.060568  0.500000  0.978643
    Cu  Cu2   0.939432  0.500000  0.500000  0.978645
    Cu  Cu3   0.500000  0.939432  0.500000  0.978663
    Cu  Cu4   0.060568  0.500000  0.500000  0.978660
    Cu  Cu5   0.000000  0.560568  0.000000  0.978639
    Cu  Cu6   0.439432  0.000000  0.000000  0.978627
    Cu  Cu7   0.000000  0.439432  0.000000  0.978674
    Cu  Cu8   0.560568  0.000000  0.000000  0.978683
    C   C17   0.554466  0.009602  0.878162  -0.075063
    C   C18   0.990398  0.554466  0.878162  -0.074987
    C   C19   0.445534  0.990398  0.878162  -0.075071
    C   C20   0.009602  0.445534  0.878162  -0.075041
    C   C21   0.554466  0.990398  0.121838  -0.074971
    C   C22   0.990398  0.445534  0.121838  -0.074984
    C   C23   0.445534  0.009602  0.121838  -0.075004
    C   C24   0.009602  0.554466  0.121838  -0.075019
    C   C25   0.054466  0.509602  0.378162  -0.075029
    C   C26   0.490398  0.054466  0.378162  -0.074977
    C   C27   0.945534  0.490398  0.378162  -0.075045
    C   C28   0.509602  0.945534  0.378162  -0.075001
    C   C29   0.054466  0.490398  0.621838  -0.074975
    C   C30   0.490398  0.945534  0.621838  -0.075048
    C   C31   0.945534  0.509602  0.621838  -0.075000
    C   C32   0.509602  0.054466  0.621838  -0.075031
    H   H1    0.597333  0.017954  0.891904  0.124114
    H   H2    0.982046  0.597333  0.891904  0.124106
    H   H3    0.402667  0.982046  0.891904  0.124118
    H   H4    0.017954  0.402667  0.891904  0.124109
    H   H5    0.597333  0.982046  0.108096  0.124107
    H   H6    0.982046  0.402667  0.108096  0.124107
    H   H7    0.402667  0.017954  0.108096  0.124118
    H   H8    0.017954  0.597333  0.108096  0.124106
    H   H9    0.097333  0.517954  0.391904  0.124125
    H   H10   0.482046  0.097333  0.391904  0.124109
    H   H11   0.902667  0.482046  0.391904  0.124118
    H   H12   0.517954  0.902667  0.391904  0.124119
    H   H13   0.097333  0.482046  0.608096  0.124110
    H   H14   0.482046  0.902667  0.608096  0.124118
    H   H15   0.902667  0.517954  0.608096  0.124120
    H   H16   0.517954  0.097333  0.608096  0.124125
    C   C33   0.554219  0.010827  0.842374  -0.068163
    C   C34   0.989173  0.554219  0.842374  -0.068297
    C   C35   0.445781  0.989174  0.842374  -0.068145
    C   C36   0.010826  0.445781  0.842374  -0.068165
    C   C37   0.554219  0.989173  0.157626  -0.068334
    C   C38   0.989173  0.445781  0.157626  -0.068292
    C   C39   0.445781  0.010827  0.157626  -0.068244
    C   C40   0.010827  0.554219  0.157626  -0.068205
    C   C41   0.054219  0.510827  0.342374  -0.068236
    C   C42   0.489173  0.054219  0.342374  -0.068321
    C   C43   0.945781  0.489173  0.342374  -0.068195
    C   C44   0.510827  0.945781  0.342374  -0.068237
    C   C45   0.054219  0.489173  0.657626  -0.068338
    C   C46   0.489173  0.945781  0.657626  -0.068194
    C   C47   0.945781  0.510827  0.657626  -0.068249
    C   C48   0.510827  0.054219  0.657626  -0.068230
    H   H17   0.596805  0.020247  0.828567  0.097764
    H   H18   0.979753  0.596805  0.828567  0.097803
    H   H19   0.403195  0.979753  0.828567  0.097751
    H   H20   0.020247  0.403195  0.828567  0.097755
    H   H21   0.596805  0.979753  0.171433  0.097807
    H   H22   0.979753  0.403195  0.171433  0.097796
    H   H23   0.403195  0.020247  0.171433  0.097768
    H   H24   0.020247  0.596805  0.171433  0.097770
    H   H25   0.096805  0.520247  0.328567  0.097771
    H   H26   0.479753  0.096805  0.328567  0.097803
    H   H27   0.903195  0.479753  0.328567  0.097756
    H   H28   0.520247  0.903195  0.328567  0.097765
    H   H29   0.096805  0.479753  0.671433  0.097803
    H   H30   0.479753  0.903195  0.671433  0.097759
    H   H31   0.903195  0.520247  0.671433  0.097764
    H   H32   0.520247  0.096805  0.671433  0.097772
    C   C49   0.500000  0.000000  0.824259  0.021304
    C   C50   0.000000  0.500000  0.824259  0.021358
    C   C51   0.500000  0.000000  0.175741  0.021428
    C   C52   0.000000  0.500000  0.175741  0.021379
    C   C53   0.000000  0.500000  0.324259  0.021384
    C   C54   0.500000  0.000000  0.324259  0.021424
    C   C55   0.000000  0.500000  0.675741  0.021443
    C   C56   0.500000  0.000000  0.675741  0.021398
    C   C57   0.500000  0.000000  0.896172  -0.017183
    C   C58   0.000000  0.500000  0.896172  -0.017220
    C   C59   0.500000  0.000000  0.103828  -0.017245
    C   C60   0.000000  0.500000  0.103828  -0.017232
    C   C61   0.000000  0.500000  0.396172  -0.017227
    C   C62   0.500000  0.000000  0.396172  -0.017255
    C   C63   0.000000  0.500000  0.603828  -0.017253
    C   C64   0.500000  0.000000  0.603828  -0.017228
    C   C65   0.461134  0.039852  0.767998  -0.050457
    C   C66   0.960148  0.461134  0.767998  -0.050452
    C   C67   0.538866  0.960148  0.767998  -0.050474
    C   C68   0.039852  0.538866  0.767998  -0.050498
    C   C69   0.461134  0.960148  0.232002  -0.050456
    C   C70   0.960148  0.538866  0.232002  -0.050466
    C   C71   0.538866  0.039852  0.232002  -0.050487
    C   C72   0.039852  0.461134  0.232002  -0.050492
    C   C73   0.961134  0.539852  0.267998  -0.050444
    C   C74   0.460148  0.961134  0.267998  -0.050452
    C   C75   0.038866  0.460148  0.267998  -0.050442
    C   C76   0.539852  0.038866  0.267998  -0.050479
    C   C77   0.961134  0.460148  0.732002  -0.050449
    C   C78   0.460148  0.038866  0.732002  -0.050454
    C   C79   0.038866  0.539852  0.732002  -0.050453
    C   C80   0.539852  0.961134  0.732002  -0.050425
    C   C81   0.500000  0.000000  0.713924  0.080329
    C   C82   0.000000  0.500000  0.713924  0.080350
    C   C83   0.500000  0.000000  0.286076  0.080367
    C   C84   0.000000  0.500000  0.286076  0.080343
    C   C85   0.000000  0.500000  0.213924  0.080379
    C   C86   0.500000  0.000000  0.213924  0.080371
    C   C87   0.000000  0.500000  0.786076  0.080380
    C   C88   0.500000  0.000000  0.786076  0.080375
    C   C89   0.717035  0.964359  0.476396  -0.118419
    C   C90   0.035641  0.717035  0.476396  -0.118417
    C   C91   0.282965  0.035641  0.476396  -0.118427
    C   C92   0.964359  0.282965  0.476396  -0.118426
    C   C93   0.717035  0.035641  0.523604  -0.118423
    C   C94   0.035641  0.282965  0.523604  -0.118425
    C   C95   0.282965  0.964359  0.523604  -0.118428
    C   C96   0.964359  0.717035  0.523604  -0.118416
    C   C97   0.217035  0.464359  0.976396  -0.118412
    C   C98   0.535641  0.217035  0.976396  -0.118424
    C   C99   0.782965  0.535641  0.976396  -0.118497
    C   C100  0.464359  0.782965  0.976396  -0.118448
    C   C101  0.217035  0.535641  0.023604  -0.118420
    C   C102  0.535641  0.782965  0.023604  -0.118497
    C   C103  0.782965  0.464359  0.023604  -0.118445
    C   C104  0.464359  0.217035  0.023604  -0.118408
    H   H33   0.691642  0.936148  0.458093  0.168752
    H   H34   0.063852  0.691642  0.458093  0.168755
    H   H35   0.308358  0.063852  0.458093  0.168759
    H   H36   0.936148  0.308358  0.458093  0.168759
    H   H37   0.691642  0.063852  0.541907  0.168755
    H   H38   0.063852  0.308358  0.541907  0.168760
    H   H39   0.308358  0.936148  0.541907  0.168757
    H   H40   0.936148  0.691642  0.541907  0.168753
    H   H41   0.191642  0.436148  0.958093  0.168754
    H   H42   0.563852  0.191642  0.958093  0.168760
    H   H43   0.808358  0.563852  0.958093  0.168770
    H   H44   0.436148  0.808358  0.958093  0.168757
    H   H45   0.191642  0.563852  0.041907  0.168759
    H   H46   0.563852  0.808358  0.041907  0.168770
    H   H47   0.808358  0.436148  0.041907  0.168756
    H   H48   0.436148  0.191642  0.041907  0.168751
    C   C105  0.781043  0.964047  0.476149  0.004428
    C   C106  0.035953  0.781043  0.476149  0.004423
    C   C107  0.218957  0.035953  0.476149  0.004415
    C   C108  0.964047  0.218957  0.476149  0.004422
    C   C109  0.781043  0.035953  0.523851  0.004428
    C   C110  0.035953  0.218957  0.523851  0.004422
    C   C111  0.218957  0.964047  0.523851  0.004421
    C   C112  0.964047  0.781043  0.523851  0.004427
    C   C113  0.281043  0.464047  0.976149  0.004416
    C   C114  0.535953  0.281043  0.976149  0.004430
    C   C115  0.718957  0.535953  0.976149  0.004568
    C   C116  0.464047  0.718957  0.976149  0.004503
    C   C117  0.281043  0.535953  0.023851  0.004426
    C   C118  0.535953  0.718957  0.023851  0.004568
    C   C119  0.718957  0.464047  0.023851  0.004501
    C   C120  0.464047  0.281043  0.023851  0.004417
    C   C121  0.813675  0.000000  0.500000  0.012679
    C   C122  0.000000  0.813675  0.500000  0.012676
    C   C123  0.186325  0.000000  0.500000  0.012711
    C   C124  0.000000  0.186325  0.500000  0.012694
    C   C125  0.313675  0.500000  0.000000  0.012681
    C   C126  0.500000  0.313675  0.000000  0.012672
    C   C127  0.686325  0.500000  0.000000  0.012567
    C   C128  0.500000  0.686325  0.000000  0.012561
    C   C129  0.685054  0.000000  0.500000  -0.002969
    C   C130  0.000000  0.685054  0.500000  -0.002969
    C   C131  0.314946  0.000000  0.500000  -0.002962
    C   C132  0.000000  0.314946  0.500000  -0.002957
    C   C133  0.185054  0.500000  0.000000  -0.002980
    C   C134  0.500000  0.185054  0.000000  -0.002975
    C   C135  0.814946  0.500000  0.000000  -0.002957
    C   C136  0.500000  0.814946  0.000000  -0.002947
    O   O33   0.014510  0.089090  0.471036  -0.595167
    O   O34   0.910910  0.014511  0.471036  -0.595154
    O   O35   0.985489  0.910910  0.471036  -0.595170
    O   O36   0.089090  0.985489  0.471036  -0.595155
    O   O37   0.014511  0.910910  0.528964  -0.595166
    O   O38   0.910910  0.985489  0.528964  -0.595162
    O   O39   0.985489  0.089090  0.528964  -0.595168
    O   O40   0.089090  0.014511  0.528964  -0.595155
    O   O41   0.514511  0.589090  0.971036  -0.595104
    O   O42   0.410910  0.514511  0.971036  -0.595166
    O   O43   0.485489  0.410910  0.971036  -0.595174
    O   O44   0.589090  0.485489  0.971036  -0.595126
    O   O45   0.514511  0.410910  0.028964  -0.595163
    O   O46   0.410910  0.485489  0.028964  -0.595167
    O   O47   0.485489  0.589090  0.028964  -0.595122
    O   O48   0.589090  0.514511  0.028964  -0.595099
    C   C137  0.000000  0.118242  0.500000  0.728260
    C   C138  0.881758  0.000000  0.500000  0.728288
    C   C139  0.000000  0.881758  0.500000  0.728298
    C   C140  0.118241  0.000000  0.500000  0.728241
    C   C141  0.500000  0.618242  0.000000  0.728193
    C   C142  0.381758  0.500000  0.000000  0.728297
    C   C143  0.500000  0.381758  0.000000  0.728304
    C   C144  0.618242  0.500000  0.000000  0.728186
    Cu  Cu9   0.000000  0.000000  0.465885  1.043653
    Cu  Cu10  0.000000  0.000000  0.534115  1.043687
    Cu  Cu11  0.500000  0.500000  0.965885  1.043662
    Cu  Cu12  0.500000  0.500000  0.034115  1.043652
    N   N1    0.421708  0.081709  0.786409  0.564673
    O   O49   0.444923  0.119711  0.809187  -0.319416
    O   O50   0.362503  0.082786  0.780073  -0.291382
    N   N2    0.918291  0.421708  0.786409  0.564639
    O   O51   0.880289  0.444923  0.809187  -0.319401
    O   O52   0.917214  0.362503  0.780073  -0.291374
    N   N3    0.578292  0.918291  0.786409  0.564667
    O   O53   0.555077  0.880289  0.809187  -0.319411
    O   O54   0.637497  0.917214  0.780073  -0.291382
    N   N4    0.081709  0.578292  0.786409  0.564711
    O   O55   0.119711  0.555077  0.809187  -0.319420
    O   O56   0.082786  0.637497  0.780073  -0.291397
    N   N5    0.421708  0.918291  0.213591  0.564649
    O   O57   0.444923  0.880289  0.190813  -0.319405
    O   O58   0.362503  0.917214  0.219927  -0.291374
    N   N6    0.918291  0.578292  0.213591  0.564653
    O   O59   0.880289  0.555077  0.190813  -0.319404
    O   O60   0.917214  0.637497  0.219927  -0.291381
    N   N7    0.578292  0.081709  0.213591  0.564706
    O   O61   0.555077  0.119711  0.190813  -0.319417
    O   O62   0.637497  0.082786  0.219927  -0.291395
    N   N8    0.081709  0.421708  0.213591  0.564693
    O   O63   0.119711  0.444923  0.190813  -0.319417
    O   O64   0.082786  0.362503  0.219927  -0.291388
    N   N9    0.921708  0.581709  0.286409  0.564676
    O   O65   0.944923  0.619711  0.309187  -0.319419
    O   O66   0.862503  0.582786  0.280073  -0.291380
    N   N10   0.418291  0.921708  0.286409  0.564653
    O   O67   0.380289  0.944923  0.309187  -0.319410
    O   O68   0.417214  0.862503  0.280073  -0.291374
    N   N11   0.078292  0.418291  0.286409  0.564672
    O   O69   0.055077  0.380289  0.309187  -0.319417
    O   O70   0.137497  0.417214  0.280073  -0.291383
    N   N12   0.581709  0.078292  0.286409  0.564705
    O   O71   0.619711  0.055077  0.309187  -0.319419
    O   O72   0.582786  0.137497  0.280073  -0.291394
    N   N13   0.921708  0.418291  0.713591  0.564656
    O   O73   0.944923  0.380289  0.690813  -0.319411
    O   O74   0.862503  0.417214  0.719927  -0.291374
    N   N14   0.418291  0.078292  0.713591  0.564668
    O   O75   0.380289  0.055077  0.690813  -0.319416
    O   O76   0.417214  0.137497  0.719927  -0.291381
    N   N15   0.078292  0.581709  0.713591  0.564687
    O   O77   0.055076  0.619711  0.690813  -0.319415
    O   O78   0.137497  0.582786  0.719927  -0.291387
    N   N16   0.581709  0.921708  0.713591  0.564655
    O   O79   0.619711  0.944924  0.690813  -0.319415
    O   O80   0.582786  0.862503  0.719927  -0.291374
    N   N17   0.812205  0.924759  0.451920  0.618721
    O   O81   0.785947  0.912589  0.422297  -0.377582
    O   O82   0.857659  0.889844  0.462294  -0.342140
    N   N18   0.075241  0.812205  0.451920  0.618729
    O   O83   0.087411  0.785947  0.422297  -0.377589
    O   O84   0.110156  0.857659  0.462294  -0.342145
    N   N19   0.187795  0.075241  0.451920  0.618737
    O   O85   0.214053  0.087411  0.422297  -0.377585
    O   O86   0.142341  0.110156  0.462294  -0.342149
    N   N20   0.924759  0.187795  0.451920  0.618728
    O   O87   0.912589  0.214053  0.422297  -0.377590
    O   O88   0.889844  0.142341  0.462294  -0.342143
    N   N21   0.812205  0.075241  0.548080  0.618727
    O   O89   0.785947  0.087411  0.577703  -0.377584
    O   O90   0.857659  0.110156  0.537706  -0.342141
    N   N22   0.075241  0.187795  0.548080  0.618724
    O   O91   0.087411  0.214053  0.577703  -0.377589
    O   O92   0.110156  0.142341  0.537706  -0.342143
    N   N23   0.187795  0.924759  0.548080  0.618728
    O   O93   0.214053  0.912589  0.577703  -0.377585
    O   O94   0.142341  0.889844  0.537706  -0.342142
    N   N24   0.924759  0.812205  0.548080  0.618721
    O   O95   0.912589  0.785947  0.577703  -0.377588
    O   O96   0.889844  0.857659  0.537706  -0.342140
    N   N25   0.312205  0.424759  0.951920  0.618732
    O   O97   0.285947  0.412589  0.922297  -0.377586
    O   O98   0.357659  0.389844  0.962294  -0.342144
    N   N26   0.575241  0.312205  0.951920  0.618729
    O   O99   0.587411  0.285947  0.922297  -0.377590
    O   O100  0.610156  0.357659  0.962294  -0.342140
    N   N27   0.687795  0.575241  0.951920  0.618675
    O   O101  0.714053  0.587411  0.922297  -0.377582
    O   O102  0.642341  0.610156  0.962294  -0.342125
    N   N28   0.424759  0.687795  0.951920  0.618700
    O   O103  0.412589  0.714053  0.922297  -0.377583
    O   O104  0.389844  0.642341  0.962294  -0.342134
    N   N29   0.312205  0.575241  0.048080  0.618729
    O   O105  0.285947  0.587411  0.077703  -0.377589
    O   O106  0.357659  0.610156  0.037706  -0.342141
    N   N30   0.575241  0.687795  0.048080  0.618677
    O   O107  0.587411  0.714053  0.077703  -0.377583
    O   O108  0.610156  0.642341  0.037706  -0.342129
    N   N31   0.687795  0.424759  0.048080  0.618698
    O   O109  0.714053  0.412589  0.077703  -0.377581
    O   O110  0.642341  0.389844  0.037706  -0.342133
    N   N32   0.424759  0.312205  0.048080  0.618734
    O   O111  0.412589  0.285947  0.077703  -0.377588
    O   O112  0.389844  0.357659  0.037706  -0.342147
