# Generated by REPEAT Assigner based on pymatgen
data_DB0-m2_o1_o3_f0_pcu.sym.12_sqe
_audit_creation_date              2022-05-24
_audit_creation_method            REPEAT_Assigner
_cell_length_a                    10.853761
_cell_length_b                    9.397950
_cell_length_c                    19.489764
_cell_angle_alpha                 90.000000
_cell_angle_beta                  89.995081
_cell_angle_gamma                 90.000000
_cell_volume                      1988.016384
_symmetry_space_group_name_H-M    P1
_symmetry_Int_Tables_number       1
loop_
    _symmetry_equiv_pos_site_id
    _symmetry_equiv_pos_as_xyz
    1  x,y,z
loop_
    _atom_site_type_symbol
    _atom_site_label
    _atom_site_fract_x
    _atom_site_fract_y
    _atom_site_fract_z
    _atom_type_partial_charge
    O   O1   0.320550  0.621936  0.498697  -0.606503
    O   O2   0.680153  0.379562  0.497748  -0.634575
    O   O3   0.678166  0.622757  0.498619  -0.636517
    O   O4   0.321915  0.377345  0.498104  -0.619897
    C   C1   0.873353  0.500928  0.500034  0.001396
    C   C2   0.128621  0.499411  0.500458  -0.059440
    C   C3   0.262997  0.499221  0.500579  0.690764
    C   C4   0.737379  0.501332  0.500038  0.696396
    O   O5   0.495927  0.620669  0.400801  -0.381350
    O   O6   0.496472  0.378411  0.599881  -0.365479
    O   O7   0.495832  0.622233  0.600185  -0.364450
    O   O8   0.496075  0.378108  0.400537  -0.379937
    C   C5   0.500270  0.499996  0.367502  0.416384
    C   C6   0.499497  0.499687  0.632868  0.331933
    Cu  Cu1  0.500962  0.641991  0.499704  0.779998
    Cu  Cu2  0.499932  0.358376  0.500030  0.817895
    H   H1   0.361607  0.129764  0.425246  0.070882
    H   H2   0.658287  0.868937  0.561878  0.060966
    H   H3   0.659705  0.128893  0.560394  0.031587
    H   H4   0.360216  0.870305  0.424844  0.073535
    C   C7   0.063427  0.372470  0.500185  -0.054333
    C   C8   0.938021  0.627408  0.501540  -0.141787
    C   C9   0.936470  0.373441  0.499581  -0.132710
    C   C10  0.064710  0.626238  0.501750  -0.045363
    H   H5   0.110623  0.271217  0.501527  0.086103
    H   H6   0.890396  0.727967  0.504646  0.120688
    H   H7   0.887970  0.272542  0.500878  0.115466
    H   H8   0.112773  0.726076  0.504470  0.081478
    C   C11  0.505809  0.372389  0.746625  -0.057998
    C   C12  0.493552  0.627714  0.252902  -0.046130
    C   C13  0.507873  0.372831  0.253282  -0.052949
    C   C14  0.490942  0.627456  0.745841  -0.082643
    C   C15  0.507802  0.375161  0.816951  -0.084422
    C   C16  0.493859  0.624982  0.182131  -0.079024
    C   C17  0.508891  0.374243  0.182019  -0.086735
    C   C18  0.492774  0.627093  0.816530  -0.073120
    H   H9   0.512727  0.274381  0.843959  0.081992
    H   H10  0.491615  0.725157  0.155002  0.079140
    H   H11  0.514014  0.274473  0.155172  0.079626
    H   H12  0.491198  0.727861  0.843571  0.072851
    C   C19  0.500892  0.501472  0.852546  0.034645
    C   C20  0.501050  0.499432  0.146121  0.040184
    C   C21  0.420719  0.074389  0.460168  0.152302
    C   C22  0.586721  0.926539  0.535330  0.093329
    C   C23  0.586107  0.072082  0.535556  0.228907
    C   C24  0.421551  0.926655  0.459633  0.111758
    C   C25  0.498937  0.500106  0.708891  0.186162
    C   C26  0.501211  0.499939  0.290536  0.124141
    C   C27  0.425676  0.593492  0.964122  -0.135156
    C   C28  0.575037  0.407029  0.034599  -0.145563
    C   C29  0.425154  0.592388  0.034959  -0.140730
    C   C30  0.575081  0.407519  0.963912  -0.140204
    H   H13  0.363568  0.663897  0.937459  0.118843
    H   H14  0.635496  0.333793  0.061153  0.121225
    H   H15  0.361706  0.661863  0.062019  0.109987
    H   H16  0.636155  0.336267  0.937176  0.112779
    N   N1   0.499134  0.854949  0.500562  -0.200240
    N   N2   0.501421  0.145159  0.500325  -0.282941
    C   C31  0.500178  0.499308  0.070784  0.104741
    C   C32  0.501101  0.501566  0.928109  0.103831
    Br  Br1  0.515535  0.186164  0.707562  -0.082910
    Br  Br2  0.484017  0.813724  0.292124  -0.080362
    Br  Br3  0.520084  0.186033  0.292878  -0.076866
    Br  Br4  0.480059  0.814551  0.707177  -0.061581
