# Generated by REPEAT Assigner based on pymatgen
data_DB0-m2_o1_o3_f0_nbo.sym.32
_audit_creation_date              2022-05-24
_audit_creation_method            REPEAT_Assigner
_cell_length_a                    21.558723
_cell_length_b                    21.539054
_cell_length_c                    38.569946
_cell_angle_alpha                 90.000000
_cell_angle_beta                  90.000000
_cell_angle_gamma                 90.000000
_cell_volume                      17910.128289
_symmetry_space_group_name_H-M    P1
_symmetry_Int_Tables_number       1
loop_
    _symmetry_equiv_pos_site_id
    _symmetry_equiv_pos_as_xyz
    1  x,y,z
loop_
    _atom_site_type_symbol
    _atom_site_label
    _atom_site_fract_x
    _atom_site_fract_y
    _atom_site_fract_z
    _atom_type_partial_charge
    O   O1    0.594049  0.050866  0.510190  -0.617915
    O   O2    0.949812  0.588814  0.508632  -0.585564
    O   O3    0.417390  0.948714  0.509476  -0.614965
    O   O4    0.052028  0.411889  0.510633  -0.588728
    O   O5    0.594049  0.949134  0.489810  -0.617835
    O   O6    0.949812  0.411186  0.491368  -0.585561
    O   O7    0.417390  0.051286  0.490524  -0.615019
    O   O8    0.052028  0.588111  0.489367  -0.588717
    O   O9    0.094049  0.550866  0.010190  -0.617872
    O   O10   0.449812  0.088814  0.008632  -0.585548
    O   O11   0.917390  0.448714  0.009476  -0.614959
    O   O12   0.552028  0.911889  0.010633  -0.588667
    O   O13   0.094049  0.449134  0.989810  -0.617867
    O   O14   0.449812  0.911186  0.991368  -0.585578
    O   O15   0.917390  0.551286  0.990524  -0.614961
    O   O16   0.552028  0.088111  0.989367  -0.588611
    C   C1    0.623090  0.000000  0.500000  0.750860
    C   C2    0.000934  0.617615  0.498683  0.719155
    C   C3    0.388297  0.000000  0.500000  0.732095
    C   C4    0.000934  0.382385  0.501317  0.719165
    C   C5    0.123090  0.500000  0.000000  0.750985
    C   C6    0.500934  0.117615  0.998683  0.719072
    C   C7    0.888297  0.500000  0.000000  0.732094
    C   C8    0.500934  0.882385  0.001317  0.719178
    O   O17   0.488216  0.049991  0.549831  -0.603678
    O   O18   0.949784  0.484626  0.549710  -0.599025
    O   O19   0.523195  0.947799  0.549137  -0.604186
    O   O20   0.052054  0.518976  0.549320  -0.596978
    O   O21   0.488216  0.950009  0.450169  -0.603679
    O   O22   0.949784  0.515374  0.450290  -0.599007
    O   O23   0.523195  0.052202  0.450863  -0.604197
    O   O24   0.052054  0.481024  0.450680  -0.596960
    O   O25   0.988216  0.549991  0.049831  -0.603679
    O   O26   0.449784  0.984626  0.049710  -0.599016
    O   O27   0.023195  0.447799  0.049137  -0.604226
    O   O28   0.552054  0.018976  0.049320  -0.596945
    O   O29   0.988216  0.450009  0.950169  -0.603658
    O   O30   0.449784  0.015374  0.950290  -0.599014
    O   O31   0.023195  0.552202  0.950863  -0.604209
    O   O32   0.552054  0.981024  0.950680  -0.596946
    C   C9    0.505609  0.998517  0.565766  0.698487
    C   C10   0.000914  0.502417  0.565796  0.675169
    C   C11   0.505609  0.001483  0.434234  0.698583
    C   C12   0.000914  0.497583  0.434204  0.675125
    C   C13   0.005609  0.498517  0.065766  0.698575
    C   C14   0.500914  0.002417  0.065796  0.675129
    C   C15   0.005609  0.501483  0.934234  0.698496
    C   C16   0.500914  0.997583  0.934204  0.675088
    Cu  Cu1   0.505719  0.060588  0.500418  0.964857
    Cu  Cu2   0.940332  0.500000  0.500000  0.945722
    Cu  Cu3   0.505719  0.939412  0.499582  0.964879
    Cu  Cu4   0.061505  0.500000  0.500000  0.950985
    Cu  Cu5   0.005719  0.560588  0.000418  0.964839
    Cu  Cu6   0.440332  0.000000  0.000000  0.945748
    Cu  Cu7   0.005719  0.439412  0.999582  0.964840
    Cu  Cu8   0.561505  0.000000  0.000000  0.951044
    C   C17   0.555737  0.987715  0.878265  -0.100413
    C   C18   0.014002  0.557309  0.878473  -0.082404
    C   C19   0.446343  0.003995  0.878023  -0.095993
    C   C20   0.995761  0.448132  0.877860  -0.073795
    C   C21   0.555737  0.012285  0.121735  -0.100417
    C   C22   0.014002  0.442691  0.121527  -0.082399
    C   C23   0.446343  0.996005  0.121977  -0.096004
    C   C24   0.995761  0.551868  0.122140  -0.073786
    C   C25   0.055737  0.487715  0.378265  -0.100404
    C   C26   0.514002  0.057309  0.378473  -0.082383
    C   C27   0.946343  0.503995  0.378023  -0.095986
    C   C28   0.495761  0.948132  0.377860  -0.073772
    C   C29   0.055737  0.512285  0.621735  -0.100413
    C   C30   0.514002  0.942691  0.621527  -0.082448
    C   C31   0.946343  0.496005  0.621977  -0.096000
    C   C32   0.495761  0.051868  0.622140  -0.073841
    H   H1    0.599224  0.982257  0.891847  0.122376
    H   H2    0.020846  0.600476  0.892216  0.118569
    H   H3    0.402766  0.010117  0.891426  0.121194
    H   H4    0.989412  0.404380  0.891088  0.113915
    H   H5    0.599224  0.017743  0.108153  0.122382
    H   H6    0.020846  0.399524  0.107784  0.118570
    H   H7    0.402766  0.989883  0.108574  0.121201
    H   H8    0.989412  0.595620  0.108912  0.113915
    H   H9    0.099224  0.482257  0.391847  0.122371
    H   H10   0.520846  0.100476  0.392215  0.118560
    H   H11   0.902766  0.510117  0.391426  0.121194
    H   H12   0.489412  0.904380  0.391088  0.113913
    H   H13   0.099224  0.517743  0.608153  0.122377
    H   H14   0.520846  0.899524  0.607784  0.118583
    H   H15   0.902766  0.489883  0.608574  0.121202
    H   H16   0.489412  0.095620  0.608912  0.113934
    C   C33   0.555934  0.987311  0.842533  -0.154123
    C   C34   0.012953  0.558114  0.842737  -0.170620
    C   C35   0.446447  0.002930  0.842292  -0.155900
    C   C36   0.995343  0.448839  0.842136  -0.163303
    C   C37   0.555934  0.012689  0.157467  -0.154118
    C   C38   0.012953  0.441886  0.157263  -0.170616
    C   C39   0.446447  0.997070  0.157708  -0.155886
    C   C40   0.995343  0.551161  0.157864  -0.163288
    C   C41   0.055934  0.487311  0.342533  -0.154125
    C   C42   0.512953  0.058114  0.342737  -0.170612
    C   C43   0.946447  0.502930  0.342292  -0.155895
    C   C44   0.495343  0.948839  0.342136  -0.163293
    C   C45   0.055934  0.512689  0.657467  -0.154114
    C   C46   0.512953  0.941886  0.657263  -0.170601
    C   C47   0.946447  0.497070  0.657708  -0.155883
    C   C48   0.495343  0.051161  0.657864  -0.163275
    H   H17   0.599755  0.982508  0.829227  0.111922
    H   H18   0.018098  0.602085  0.829585  0.116348
    H   H19   0.402761  0.007334  0.828805  0.111576
    H   H20   0.989671  0.405413  0.828497  0.112909
    H   H21   0.599755  0.017492  0.170772  0.111921
    H   H22   0.018098  0.397915  0.170415  0.116345
    H   H23   0.402761  0.992666  0.171195  0.111570
    H   H24   0.989671  0.594587  0.171503  0.112899
    H   H25   0.099755  0.482508  0.329227  0.111920
    H   H26   0.518098  0.102085  0.329585  0.116345
    H   H27   0.902761  0.507334  0.328805  0.111573
    H   H28   0.489671  0.905413  0.328497  0.112902
    H   H29   0.099755  0.517492  0.670772  0.111918
    H   H30   0.518098  0.897915  0.670415  0.116345
    H   H31   0.902761  0.492666  0.671195  0.111570
    H   H32   0.489671  0.094587  0.671503  0.112900
    C   C49   0.501283  0.994862  0.824216  0.097691
    C   C50   0.003700  0.503863  0.824243  0.106333
    C   C51   0.501283  0.005138  0.175784  0.097692
    C   C52   0.003700  0.496137  0.175757  0.106327
    C   C53   0.001283  0.494862  0.324216  0.097690
    C   C54   0.503700  0.003863  0.324243  0.106323
    C   C55   0.001283  0.505138  0.675784  0.097689
    C   C56   0.503700  0.996137  0.675757  0.106305
    C   C57   0.500984  0.996345  0.896220  -0.030790
    C   C58   0.005203  0.502338  0.896245  -0.060658
    C   C59   0.500984  0.003655  0.103780  -0.030814
    C   C60   0.005203  0.497662  0.103755  -0.060709
    C   C61   0.000984  0.496345  0.396220  -0.030834
    C   C62   0.505203  0.002338  0.396245  -0.060741
    C   C63   0.000984  0.503655  0.603780  -0.030849
    C   C64   0.505203  0.997662  0.603755  -0.060603
    C   C65   0.462443  0.033656  0.767751  -0.136850
    C   C66   0.962899  0.466172  0.767974  -0.149884
    C   C67   0.541154  0.956024  0.767945  -0.138652
    C   C68   0.041890  0.543518  0.767788  -0.140192
    C   C69   0.462443  0.966344  0.232249  -0.136872
    C   C70   0.962899  0.533828  0.232026  -0.149911
    C   C71   0.541154  0.043976  0.232055  -0.138676
    C   C72   0.041890  0.456482  0.232212  -0.140218
    C   C73   0.962443  0.533656  0.267751  -0.136862
    C   C74   0.462899  0.966172  0.267974  -0.149902
    C   C75   0.041154  0.456024  0.267945  -0.138660
    C   C76   0.541890  0.043518  0.267788  -0.140205
    C   C77   0.962443  0.466344  0.732249  -0.136882
    C   C78   0.462899  0.033828  0.732026  -0.149928
    C   C79   0.041154  0.543976  0.732055  -0.138684
    C   C80   0.541890  0.956482  0.732212  -0.140237
    H   H33   0.431779  0.065351  0.781057  0.113204
    H   H34   0.930864  0.436090  0.781440  0.114239
    H   H35   0.571468  0.924207  0.781412  0.111451
    H   H36   0.074416  0.573297  0.781095  0.112167
    H   H37   0.431779  0.934649  0.218943  0.113210
    H   H38   0.930864  0.563910  0.218560  0.114253
    H   H39   0.571468  0.075793  0.218588  0.111455
    H   H40   0.074416  0.426703  0.218905  0.112173
    H   H41   0.931779  0.565351  0.281057  0.113206
    H   H42   0.430864  0.936090  0.281440  0.114249
    H   H43   0.071468  0.424207  0.281412  0.111451
    H   H44   0.574416  0.073297  0.281095  0.112172
    H   H45   0.931779  0.434649  0.718943  0.113212
    H   H46   0.430864  0.063910  0.718560  0.114256
    H   H47   0.071468  0.575793  0.718588  0.111456
    H   H48   0.574416  0.926703  0.718905  0.112182
    C   C81   0.502778  0.995408  0.713916  0.073242
    C   C82   0.001557  0.505252  0.713947  0.072008
    C   C83   0.502778  0.004592  0.286084  0.073213
    C   C84   0.001557  0.494748  0.286053  0.071998
    C   C85   0.002778  0.495408  0.213916  0.073219
    C   C86   0.501557  0.005252  0.213947  0.072010
    C   C87   0.002778  0.504592  0.786084  0.073203
    C   C88   0.501557  0.994748  0.786053  0.071997
    C   C89   0.722886  0.963117  0.477038  -0.305689
    C   C90   0.048404  0.717204  0.481743  -0.245065
    C   C91   0.288315  0.043133  0.480765  -0.311882
    C   C92   0.953842  0.281543  0.486289  -0.243515
    C   C93   0.722886  0.036883  0.522962  -0.305665
    C   C94   0.048404  0.282796  0.518257  -0.245025
    C   C95   0.288315  0.956867  0.519234  -0.311888
    C   C96   0.953842  0.718457  0.513711  -0.243548
    C   C97   0.222886  0.463117  0.977038  -0.305604
    C   C98   0.548404  0.217204  0.981743  -0.245157
    C   C99   0.788315  0.543133  0.980765  -0.311920
    C   C100  0.453842  0.781543  0.986289  -0.243526
    C   C101  0.222886  0.536883  0.022962  -0.305589
    C   C102  0.548404  0.782796  0.018257  -0.245036
    C   C103  0.788315  0.456867  0.019234  -0.311939
    C   C104  0.453842  0.218457  0.013711  -0.243609
    H   H49   0.697449  0.935035  0.458695  0.162228
    H   H50   0.084810  0.691981  0.468631  0.148191
    H   H51   0.313504  0.076352  0.465208  0.165312
    H   H52   0.916008  0.305780  0.473879  0.142317
    H   H53   0.697449  0.064965  0.541305  0.162244
    H   H54   0.084810  0.308019  0.531369  0.148194
    H   H55   0.313504  0.923649  0.534792  0.165302
    H   H56   0.916008  0.694220  0.526121  0.142324
    H   H57   0.197449  0.435035  0.958695  0.162206
    H   H58   0.584810  0.191981  0.968631  0.148185
    H   H59   0.813504  0.576352  0.965208  0.165292
    H   H60   0.416008  0.805780  0.973879  0.142319
    H   H61   0.197449  0.564965  0.041305  0.162208
    H   H62   0.584810  0.808019  0.031369  0.148176
    H   H63   0.813504  0.423649  0.034792  0.165290
    H   H64   0.416008  0.194220  0.026121  0.142318
    C   C105  0.786930  0.964370  0.475956  0.353976
    C   C106  0.048819  0.781244  0.480955  0.210720
    C   C107  0.224272  0.042033  0.479481  0.371191
    C   C108  0.954090  0.217483  0.486219  0.194842
    C   C109  0.786930  0.035630  0.524044  0.353954
    C   C110  0.048819  0.218756  0.519045  0.210626
    C   C111  0.224272  0.957967  0.520519  0.371181
    C   C112  0.954090  0.782517  0.513781  0.194860
    C   C113  0.286930  0.464370  0.975956  0.353929
    C   C114  0.548819  0.281244  0.980955  0.210904
    C   C115  0.724272  0.542033  0.979481  0.371422
    C   C116  0.454090  0.717483  0.986219  0.194852
    C   C117  0.286930  0.535630  0.024044  0.353918
    C   C118  0.548819  0.718756  0.019045  0.210654
    C   C119  0.724272  0.457967  0.020519  0.371391
    C   C120  0.454090  0.282517  0.013781  0.195029
    C   C121  0.819640  0.000000  0.500000  -0.363910
    C   C122  0.002232  0.814400  0.497565  -0.201118
    C   C123  0.191571  0.000000  0.500000  -0.417614
    C   C124  0.002232  0.185600  0.502435  -0.201079
    C   C125  0.319640  0.500000  0.000000  -0.363798
    C   C126  0.502232  0.314400  0.997565  -0.201529
    C   C127  0.691571  0.500000  0.000000  -0.418027
    C   C128  0.502232  0.685600  0.002435  -0.201061
    C   C129  0.690888  0.000000  0.500000  0.012173
    C   C130  0.001165  0.685620  0.498149  -0.022530
    C   C131  0.320415  0.000000  0.500000  0.023441
    C   C132  0.001165  0.314380  0.501851  -0.022561
    C   C133  0.190888  0.500000  0.000000  0.012002
    C   C134  0.501165  0.185620  0.998149  -0.022420
    C   C135  0.820415  0.500000  0.000000  0.023460
    C   C136  0.501165  0.814380  0.001851  -0.022555
    O   O33   0.022402  0.090287  0.473114  -0.474966
    O   O34   0.916990  0.018547  0.471829  -0.395698
    O   O35   0.988566  0.912845  0.469799  -0.473342
    O   O36   0.094359  0.984609  0.471128  -0.462933
    O   O37   0.022402  0.909713  0.526886  -0.474968
    O   O38   0.916990  0.981453  0.528171  -0.395701
    O   O39   0.988566  0.087155  0.530201  -0.473311
    O   O40   0.094359  0.015391  0.528872  -0.462924
    O   O41   0.522402  0.590287  0.973114  -0.475011
    O   O42   0.416990  0.518547  0.971829  -0.395667
    O   O43   0.488566  0.412845  0.969799  -0.473484
    O   O44   0.594359  0.484609  0.971128  -0.462966
    O   O45   0.522402  0.409713  0.026886  -0.475101
    O   O46   0.416990  0.481453  0.028171  -0.395682
    O   O47   0.488566  0.587155  0.030201  -0.473303
    O   O48   0.594359  0.515391  0.028872  -0.462976
    C   C137  0.004433  0.117745  0.501944  0.576276
    C   C138  0.887755  0.000000  0.500000  0.588577
    C   C139  0.004433  0.882255  0.498056  0.576296
    C   C140  0.123502  0.000000  0.500000  0.684465
    C   C141  0.504433  0.617745  0.001944  0.576248
    C   C142  0.387755  0.500000  0.000000  0.588468
    C   C143  0.504433  0.382255  0.998056  0.576835
    C   C144  0.623502  0.500000  0.000000  0.684825
    Cu  Cu9   0.005646  0.001872  0.466203  0.798681
    Cu  Cu10  0.005646  0.998128  0.533797  0.798615
    Cu  Cu11  0.505646  0.501872  0.966203  0.798745
    Cu  Cu12  0.505646  0.498128  0.033797  0.798751
    C   C145  0.818640  0.924487  0.449457  -0.376109
    C   C146  0.844486  0.961809  0.420053  0.325093
    C   C147  0.898901  0.942620  0.404477  -0.201219
    C   C148  0.925599  0.977622  0.378564  -0.197423
    C   C149  0.897542  0.031659  0.367702  -0.107634
    C   C150  0.842410  0.050266  0.382488  -0.036915
    C   C151  0.815622  0.015401  0.408469  -0.312136
    H   H65   0.784917  0.891017  0.438490  0.098791
    H   H66   0.855813  0.896930  0.462019  0.093340
    H   H67   0.921106  0.900228  0.412736  0.136026
    H   H68   0.968625  0.962714  0.366821  0.154552
    H   H69   0.918521  0.059193  0.347421  0.087343
    H   H70   0.820154  0.092423  0.373757  0.096544
    H   H71   0.772279  0.031052  0.419446  0.130183
    C   C152  0.099919  0.812918  0.461559  -0.287281
    C   C153  0.084611  0.823031  0.424060  0.285775
    C   C154  0.131066  0.845104  0.402741  -0.248374
    C   C155  0.120428  0.853831  0.367852  -0.024505
    C   C156  0.062782  0.841915  0.354089  -0.192916
    C   C157  0.015983  0.820383  0.375158  -0.022387
    C   C158  0.026620  0.810509  0.409969  -0.264911
    H   H72   0.141779  0.783131  0.462904  0.087078
    H   H73   0.112827  0.857662  0.473629  0.097961
    H   H74   0.176399  0.854999  0.413369  0.118598
    H   H75   0.157350  0.870068  0.351238  0.095206
    H   H76   0.054324  0.849284  0.326777  0.106679
    H   H77   0.970678  0.811032  0.364355  0.074659
    H   H78   0.988332  0.793519  0.425278  0.133073
    C   C159  0.192658  0.089005  0.456877  -0.391051
    C   C160  0.172796  0.061743  0.422960  0.310002
    C   C161  0.116940  0.079702  0.408583  -0.142456
    C   C162  0.097752  0.055539  0.377304  -0.222579
    C   C163  0.135216  0.014559  0.359663  -0.071349
    C   C164  0.192092  0.998313  0.373192  -0.057275
    C   C165  0.210964  0.021731  0.404723  -0.278367
    H   H79   0.225471  0.127285  0.451243  0.098842
    H   H80   0.152625  0.109879  0.470549  0.108542
    H   H81   0.088409  0.113690  0.421440  0.083432
    H   H82   0.053656  0.069387  0.366428  0.160592
    H   H83   0.120411  0.995845  0.335012  0.081226
    H   H84   0.222083  0.967091  0.359052  0.088284
    H   H85   0.256008  0.008636  0.414496  0.131551
    C   C166  0.899849  0.185260  0.469887  -0.230362
    C   C167  0.897318  0.199281  0.432060  0.290945
    C   C168  0.846760  0.229873  0.418202  -0.222967
    C   C169  0.844362  0.242173  0.383150  -0.076661
    C   C170  0.892315  0.223881  0.361848  -0.167802
    C   C171  0.942707  0.193225  0.375602  -0.001421
    C   C172  0.945131  0.180848  0.410618  -0.259947
    H   H86   0.856981  0.202194  0.482615  0.078456
    H   H87   0.900905  0.134513  0.473257  0.063275
    H   H88   0.808806  0.244405  0.434609  0.110553
    H   H89   0.804771  0.266130  0.372356  0.100873
    H   H90   0.890332  0.233450  0.334363  0.104515
    H   H91   0.980236  0.178595  0.358912  0.067574
    H   H92   0.984569  0.156504  0.421074  0.131851
    C   C173  0.818640  0.075513  0.550543  -0.376086
    C   C174  0.844486  0.038191  0.579947  0.325065
    C   C175  0.898901  0.057380  0.595523  -0.201209
    C   C176  0.925599  0.022378  0.621436  -0.197413
    C   C177  0.897542  0.968341  0.632298  -0.107636
    C   C178  0.842410  0.949734  0.617512  -0.036896
    C   C179  0.815622  0.984599  0.591531  -0.312130
    H   H93   0.784917  0.108983  0.561510  0.098786
    H   H94   0.855813  0.103070  0.537981  0.093330
    H   H95   0.921106  0.099772  0.587264  0.136023
    H   H96   0.968625  0.037286  0.633179  0.154544
    H   H97   0.918521  0.940807  0.652579  0.087341
    H   H98   0.820154  0.907577  0.626243  0.096537
    H   H99   0.772279  0.968948  0.580554  0.130175
    C   C180  0.099919  0.187082  0.538441  -0.287089
    C   C181  0.084611  0.176969  0.575940  0.285646
    C   C182  0.131066  0.154896  0.597259  -0.248302
    C   C183  0.120428  0.146169  0.632148  -0.024503
    C   C184  0.062782  0.158085  0.645911  -0.192916
    C   C185  0.015983  0.179617  0.624842  -0.022308
    C   C186  0.026620  0.189491  0.590031  -0.264992
    H   H100  0.141779  0.216869  0.537096  0.087042
    H   H101  0.112827  0.142338  0.526371  0.097916
    H   H102  0.176399  0.145001  0.586631  0.118578
    H   H103  0.157350  0.129932  0.648762  0.095199
    H   H104  0.054324  0.150716  0.673223  0.106671
    H   H105  0.970678  0.188968  0.635645  0.074637
    H   H106  0.988332  0.206481  0.574722  0.133110
    C   C187  0.192658  0.910995  0.543123  -0.391013
    C   C188  0.172796  0.938257  0.577040  0.309962
    C   C189  0.116940  0.920298  0.591417  -0.142445
    C   C190  0.097752  0.944461  0.622696  -0.222572
    C   C191  0.135216  0.985441  0.640337  -0.071346
    C   C192  0.192092  0.001687  0.626808  -0.057277
    C   C193  0.210964  0.978269  0.595277  -0.278357
    H   H107  0.225471  0.872715  0.548757  0.098841
    H   H108  0.152625  0.890121  0.529451  0.108536
    H   H109  0.088409  0.886311  0.578560  0.083426
    H   H110  0.053656  0.930613  0.633572  0.160588
    H   H111  0.120411  0.004155  0.664988  0.081225
    H   H112  0.222083  0.032909  0.640948  0.088285
    H   H113  0.256008  0.991364  0.585504  0.131550
    C   C194  0.899849  0.814740  0.530113  -0.230321
    C   C195  0.897318  0.800719  0.567940  0.290983
    C   C196  0.846760  0.770127  0.581798  -0.223107
    C   C197  0.844362  0.757827  0.616850  -0.076434
    C   C198  0.892315  0.776119  0.638152  -0.167930
    C   C199  0.942707  0.806775  0.624398  -0.001352
    C   C200  0.945131  0.819152  0.589382  -0.260014
    H   H114  0.856981  0.797806  0.517385  0.078446
    H   H115  0.900905  0.865487  0.526743  0.063262
    H   H116  0.808806  0.755595  0.565391  0.110588
    H   H117  0.804771  0.733870  0.627644  0.100787
    H   H118  0.890332  0.766550  0.665637  0.104544
    H   H119  0.980236  0.821405  0.641088  0.067565
    H   H120  0.984569  0.843496  0.578926  0.131869
    C   C201  0.318640  0.424487  0.949457  -0.376066
    C   C202  0.344486  0.461809  0.920053  0.325067
    C   C203  0.398901  0.442620  0.904477  -0.201213
    C   C204  0.425599  0.477622  0.878564  -0.197418
    C   C205  0.397542  0.531659  0.867702  -0.107635
    C   C206  0.342410  0.550266  0.882488  -0.036912
    C   C207  0.315622  0.515401  0.908469  -0.312136
    H   H121  0.284917  0.391017  0.938490  0.098785
    H   H122  0.355813  0.396930  0.962019  0.093318
    H   H123  0.421106  0.400228  0.912736  0.136034
    H   H124  0.468625  0.462714  0.866821  0.154550
    H   H125  0.418521  0.559193  0.847421  0.087336
    H   H126  0.320154  0.592423  0.873757  0.096547
    H   H127  0.272279  0.531052  0.919446  0.130177
    C   C208  0.599919  0.312918  0.961559  -0.287323
    C   C209  0.584611  0.323031  0.924060  0.285754
    C   C210  0.631066  0.345104  0.902741  -0.248348
    C   C211  0.620428  0.353831  0.867852  -0.024562
    C   C212  0.562782  0.341915  0.854089  -0.192880
    C   C213  0.515983  0.320383  0.875158  -0.022409
    C   C214  0.526620  0.310509  0.909969  -0.264895
    H   H128  0.641779  0.283131  0.962904  0.087096
    H   H129  0.612827  0.357662  0.973629  0.097923
    H   H130  0.676399  0.354999  0.913369  0.118599
    H   H131  0.657350  0.370068  0.851238  0.095221
    H   H132  0.554324  0.349284  0.826777  0.106672
    H   H133  0.470678  0.311032  0.864355  0.074658
    H   H134  0.488332  0.293519  0.925278  0.133084
    C   C215  0.692658  0.589005  0.956877  -0.391332
    C   C216  0.672796  0.561743  0.922960  0.310274
    C   C217  0.616940  0.579702  0.908583  -0.142726
    C   C218  0.597752  0.555539  0.877304  -0.222650
    C   C219  0.635216  0.514559  0.859663  -0.071161
    C   C220  0.692092  0.498313  0.873192  -0.057411
    C   C221  0.710964  0.521731  0.904723  -0.278402
    H   H135  0.725471  0.627285  0.951243  0.098894
    H   H136  0.652625  0.609879  0.970549  0.108603
    H   H137  0.588409  0.613689  0.921440  0.083549
    H   H138  0.553656  0.569387  0.866428  0.160628
    H   H139  0.620411  0.495845  0.835012  0.081166
    H   H140  0.722083  0.467091  0.859052  0.088342
    H   H141  0.756008  0.508636  0.914496  0.131551
    C   C222  0.399849  0.685260  0.969887  -0.230355
    C   C223  0.397318  0.699281  0.932060  0.290914
    C   C224  0.346760  0.729873  0.918202  -0.222947
    C   C225  0.344362  0.742173  0.883150  -0.076682
    C   C226  0.392315  0.723881  0.861848  -0.167785
    C   C227  0.442707  0.693225  0.875602  -0.001459
    C   C228  0.445131  0.680848  0.910618  -0.259902
    H   H142  0.356981  0.702194  0.982615  0.078452
    H   H143  0.400905  0.634513  0.973257  0.063289
    H   H144  0.308806  0.744405  0.934609  0.110551
    H   H145  0.304771  0.766130  0.872356  0.100876
    H   H146  0.390332  0.733450  0.834363  0.104512
    H   H147  0.480236  0.678595  0.858912  0.067589
    H   H148  0.484569  0.656504  0.921074  0.131838
    C   C229  0.318640  0.575513  0.050543  -0.376112
    C   C230  0.344486  0.538191  0.079947  0.325093
    C   C231  0.398901  0.557380  0.095523  -0.201222
    C   C232  0.425599  0.522378  0.121436  -0.197428
    C   C233  0.397542  0.468341  0.132298  -0.107614
    C   C234  0.342410  0.449734  0.117512  -0.036923
    C   C235  0.315622  0.484599  0.091531  -0.312130
    H   H149  0.284917  0.608983  0.061510  0.098791
    H   H150  0.355813  0.603070  0.037981  0.093345
    H   H151  0.421106  0.599772  0.087264  0.136028
    H   H152  0.468625  0.537286  0.133179  0.154555
    H   H153  0.418521  0.440807  0.152579  0.087328
    H   H154  0.320154  0.407577  0.126243  0.096547
    H   H155  0.272279  0.468948  0.080554  0.130180
    C   C236  0.599919  0.687082  0.038441  -0.287185
    C   C237  0.584611  0.676969  0.075940  0.285760
    C   C238  0.631066  0.654896  0.097259  -0.248384
    C   C239  0.620428  0.646169  0.132148  -0.024503
    C   C240  0.562782  0.658085  0.145911  -0.192916
    C   C241  0.515983  0.679617  0.124842  -0.022391
    C   C242  0.526620  0.689491  0.090031  -0.264914
    H   H156  0.641779  0.716869  0.037096  0.087063
    H   H157  0.612827  0.642338  0.026371  0.097923
    H   H158  0.676399  0.645001  0.086631  0.118603
    H   H159  0.657350  0.629932  0.148762  0.095203
    H   H160  0.554324  0.650716  0.173223  0.106678
    H   H161  0.470678  0.688968  0.135645  0.074660
    H   H162  0.488332  0.706481  0.074722  0.133079
    C   C243  0.692658  0.410995  0.043123  -0.391091
    C   C244  0.672796  0.438257  0.077040  0.310177
    C   C245  0.616940  0.420298  0.091417  -0.142670
    C   C246  0.597752  0.444461  0.122696  -0.222625
    C   C247  0.635216  0.485441  0.140337  -0.071251
    C   C248  0.692092  0.501687  0.126808  -0.057260
    C   C249  0.710964  0.478269  0.095277  -0.278452
    H   H163  0.725471  0.372715  0.048757  0.098843
    H   H164  0.652625  0.390121  0.029451  0.108507
    H   H165  0.588409  0.386311  0.078560  0.083517
    H   H166  0.553656  0.430613  0.133572  0.160624
    H   H167  0.620411  0.504155  0.164988  0.081187
    H   H168  0.722083  0.532909  0.140948  0.088278
    H   H169  0.756008  0.491364  0.085504  0.131564
    C   C250  0.399849  0.314740  0.030113  -0.230431
    C   C251  0.397318  0.300719  0.067940  0.290985
    C   C252  0.346760  0.270127  0.081798  -0.222973
    C   C253  0.344362  0.257827  0.116850  -0.076666
    C   C254  0.392315  0.276119  0.138152  -0.167812
    C   C255  0.442707  0.306775  0.124398  -0.001413
    C   C256  0.445131  0.319152  0.089382  -0.259973
    H   H170  0.356981  0.297806  0.017385  0.078471
    H   H171  0.400905  0.365487  0.026743  0.063261
    H   H172  0.308806  0.255595  0.065391  0.110553
    H   H173  0.304771  0.233870  0.127644  0.100876
    H   H174  0.390332  0.266550  0.165637  0.104516
    H   H175  0.480236  0.321405  0.141088  0.067580
    H   H176  0.484569  0.343496  0.078926  0.131858
