# Generated by REPEAT Assigner based on pymatgen
data_DB0-m2_o1_o3_f0_pcu.sym.4_sqe
_audit_creation_date              2022-05-24
_audit_creation_method            REPEAT_Assigner
_cell_length_a                    10.999180
_cell_length_b                    9.469335
_cell_length_c                    19.473383
_cell_angle_alpha                 90.000000
_cell_angle_beta                  89.995011
_cell_angle_gamma                 90.000000
_cell_volume                      2028.248690
_symmetry_space_group_name_H-M    P1
_symmetry_Int_Tables_number       1
loop_
    _symmetry_equiv_pos_site_id
    _symmetry_equiv_pos_as_xyz
    1  x,y,z
loop_
    _atom_site_type_symbol
    _atom_site_label
    _atom_site_fract_x
    _atom_site_fract_y
    _atom_site_fract_z
    _atom_type_partial_charge
    O   O1    0.323837  0.621052  0.501301  -0.474529
    O   O2    0.676864  0.378950  0.500644  -0.506860
    O   O3    0.677099  0.619492  0.503940  -0.492221
    O   O4    0.323683  0.379854  0.495006  -0.432370
    C   C1    0.871538  0.499716  0.500111  -0.041739
    C   C2    0.129298  0.500628  0.500618  -0.014827
    C   C3    0.265144  0.500561  0.498897  0.547454
    C   C4    0.735696  0.499259  0.501665  0.617618
    O   O5    0.500350  0.620003  0.400434  -0.331715
    O   O6    0.490527  0.379071  0.599780  -0.439111
    O   O7    0.493897  0.620027  0.600009  -0.385262
    O   O8    0.502416  0.379272  0.400313  -0.339046
    C   C5    0.508911  0.499751  0.367453  0.310116
    C   C6    0.491371  0.499253  0.633072  0.488190
    Cu  Cu1   0.500712  0.640714  0.500083  0.643053
    Cu  Cu2   0.499819  0.358848  0.500533  0.690253
    C   C7    0.063306  0.374694  0.500996  0.028584
    C   C8    0.937348  0.625707  0.499547  0.040200
    C   C9    0.938084  0.374355  0.499291  0.057401
    C   C10   0.062640  0.626196  0.501245  0.046380
    C   C11   0.479033  0.372378  0.747403  0.101853
    C   C12   0.519895  0.625780  0.253503  0.031903
    C   C13   0.522449  0.372724  0.253718  0.027485
    C   C14   0.479417  0.625490  0.746944  0.076996
    C   C15   0.480412  0.374785  0.818278  -0.200291
    C   C16   0.517348  0.623826  0.182733  -0.148033
    C   C17   0.522446  0.373839  0.182930  -0.156497
    C   C18   0.481876  0.624756  0.817736  -0.183170
    H   H1    0.475774  0.275842  0.845850  0.106080
    H   H2    0.520216  0.723292  0.155614  0.099457
    H   H3    0.524598  0.273724  0.156286  0.107977
    H   H4    0.484325  0.724828  0.844410  0.107289
    C   C19   0.484640  0.500092  0.853887  0.104640
    C   C20   0.516008  0.498624  0.146953  0.055861
    C   C21   0.427682  0.071929  0.456990  0.292851
    C   C22   0.572323  0.927486  0.543905  0.297569
    C   C23   0.571628  0.073564  0.543684  0.305778
    C   C24   0.427952  0.926027  0.457507  0.284662
    C   C25   0.483177  0.498769  0.709756  -0.004843
    C   C26   0.516229  0.499446  0.290914  0.125600
    C   C27   0.426705  0.596309  0.967836  -0.155945
    C   C28   0.573970  0.402702  0.033075  -0.171005
    C   C29   0.434562  0.595175  0.038528  -0.142706
    C   C30   0.565695  0.403310  0.962429  -0.130370
    H   H5    0.366047  0.670718  0.943362  0.118438
    H   H6    0.634093  0.327834  0.057573  0.122674
    H   H7    0.379002  0.667662  0.067742  0.120505
    H   H8    0.620223  0.329518  0.933377  0.117759
    N   N1    0.501372  0.852527  0.500357  -0.325664
    N   N2    0.499848  0.146925  0.499661  -0.350504
    C   C31   0.508690  0.498951  0.071620  0.126387
    C   C32   0.492150  0.500090  0.929263  0.103501
    Cl  Cl1   0.330463  0.153132  0.397592  -0.030679
    Cl  Cl2   0.669736  0.844819  0.602421  -0.034170
    Cl  Cl3   0.668709  0.158675  0.602006  -0.030141
    Cl  Cl4   0.330111  0.842313  0.399125  -0.025514
    Cl  Cl5   0.129346  0.206045  0.506496  -0.082534
    Cl  Cl6   0.871093  0.794147  0.493604  -0.078733
    Cl  Cl7   0.872480  0.205952  0.493939  -0.074653
    Cl  Cl8   0.127875  0.795029  0.505926  -0.070891
    Cl  Cl9   0.465250  0.203853  0.710472  -0.115594
    Cl  Cl10  0.535237  0.793769  0.290861  -0.116181
    Cl  Cl11  0.536130  0.204830  0.291222  -0.106612
    Cl  Cl12  0.464330  0.792946  0.709289  -0.112103
