# Generated by REPEAT Assigner based on pymatgen
data_DB0-m2_o1_o3_f0_pcu.sym.13
_audit_creation_date              2022-05-24
_audit_creation_method            REPEAT_Assigner
_cell_length_a                    11.005463
_cell_length_b                    9.456208
_cell_length_c                    19.466857
_cell_angle_alpha                 90.000000
_cell_angle_beta                  89.995006
_cell_angle_gamma                 90.000000
_cell_volume                      2025.914815
_symmetry_space_group_name_H-M    P1
_symmetry_Int_Tables_number       1
loop_
    _symmetry_equiv_pos_site_id
    _symmetry_equiv_pos_as_xyz
    1  x,y,z
loop_
    _atom_site_type_symbol
    _atom_site_label
    _atom_site_fract_x
    _atom_site_fract_y
    _atom_site_fract_z
    _atom_type_partial_charge
    O   O1    0.323996  0.620357  0.499897  -0.516410
    O   O2    0.676909  0.379529  0.500257  -0.513696
    O   O3    0.677074  0.620471  0.505370  -0.461738
    O   O4    0.323865  0.379625  0.494728  -0.468838
    C   C1    0.871351  0.499771  0.499197  -0.051594
    C   C2    0.129299  0.500122  0.499935  -0.052168
    C   C3    0.265212  0.500035  0.498049  0.609663
    C   C4    0.735655  0.499938  0.501715  0.603134
    O   O5    0.510804  0.620917  0.400647  -0.363226
    O   O6    0.490077  0.379123  0.599516  -0.355922
    O   O7    0.498884  0.620097  0.600194  -0.296578
    O   O8    0.502127  0.379922  0.399973  -0.307107
    C   C5    0.511704  0.500487  0.367267  0.351067
    C   C6    0.489081  0.499498  0.632740  0.335668
    Cu  Cu1   0.500561  0.640972  0.500297  0.634404
    Cu  Cu2   0.500465  0.359120  0.499957  0.644500
    C   C7    0.063070  0.374190  0.500813  0.020748
    C   C8    0.937444  0.625669  0.498165  0.023074
    C   C9    0.937846  0.374030  0.498444  0.062829
    C   C10   0.062648  0.625898  0.500534  0.060280
    C   C11   0.476346  0.372637  0.746476  0.058772
    C   C12   0.524014  0.627258  0.253134  0.066364
    C   C13   0.524527  0.373850  0.253313  0.035887
    C   C14   0.475642  0.626169  0.746288  0.028471
    C   C15   0.481856  0.374534  0.817232  -0.167747
    C   C16   0.518671  0.625412  0.182311  -0.172573
    C   C17   0.519634  0.375203  0.182546  -0.150379
    C   C18   0.480341  0.624859  0.816975  -0.145482
    H   H1    0.478329  0.275334  0.844678  0.094707
    H   H2    0.522255  0.724866  0.155022  0.095772
    H   H3    0.518693  0.274811  0.156008  0.097651
    H   H4    0.480926  0.725143  0.843486  0.096268
    C   C19   0.486663  0.499762  0.852925  0.071933
    C   C20   0.513772  0.500254  0.146482  0.075847
    C   C21   0.428759  0.071803  0.456043  0.308224
    C   C22   0.572839  0.928141  0.543794  0.303571
    C   C23   0.571776  0.074077  0.543373  0.340508
    C   C24   0.429888  0.926096  0.456426  0.340767
    C   C25   0.480191  0.499362  0.709101  0.077450
    C   C26   0.520258  0.500580  0.290651  0.064628
    C   C27   0.428558  0.597455  0.966145  -0.152593
    C   C28   0.571639  0.402183  0.033066  -0.151401
    C   C29   0.435900  0.598497  0.036863  -0.144250
    C   C30   0.564727  0.401592  0.962321  -0.145741
    H   H5    0.368952  0.671982  0.940947  0.114133
    H   H6    0.630855  0.327078  0.058146  0.114064
    H   H7    0.382456  0.674776  0.065038  0.122947
    H   H8    0.618270  0.325695  0.933932  0.123241
    N   N1    0.500758  0.852999  0.500748  -0.387089
    N   N2    0.499759  0.146986  0.499318  -0.391623
    C   C31   0.507199  0.500476  0.070943  0.114664
    C   C32   0.493268  0.499474  0.928323  0.117921
    Br  Br1   0.321742  0.157570  0.391040  -0.009855
    Br  Br2   0.679046  0.841929  0.609329  -0.010879
    Br  Br3   0.676777  0.164084  0.608362  -0.001450
    Br  Br4   0.324005  0.836506  0.392049  -0.000437
    Br  Br5   0.132444  0.189585  0.510562  -0.069607
    Br  Br6   0.867732  0.810206  0.489340  -0.072941
    Br  Br7   0.869317  0.188641  0.491138  -0.074373
    Br  Br8   0.130710  0.811274  0.508710  -0.070586
    Br  Br9   0.452770  0.188922  0.707295  -0.127194
    Br  Br10  0.546449  0.811021  0.292318  -0.128825
    Br  Br11  0.546519  0.190046  0.292629  -0.124365
    Br  Br12  0.453120  0.809929  0.707015  -0.122492
