# Generated by REPEAT Assigner based on pymatgen
data_DB0-m2_o1_o3_f0_nbo.sym.19
_audit_creation_date              2022-05-24
_audit_creation_method            REPEAT_Assigner
_cell_length_a                    21.536423
_cell_length_b                    21.536423
_cell_length_c                    38.571536
_cell_angle_alpha                 90.000000
_cell_angle_beta                  90.000000
_cell_angle_gamma                 90.000000
_cell_volume                      17890.154334
_symmetry_space_group_name_H-M    P1
_symmetry_Int_Tables_number       1
loop_
    _symmetry_equiv_pos_site_id
    _symmetry_equiv_pos_as_xyz
    1  x,y,z
loop_
    _atom_site_type_symbol
    _atom_site_label
    _atom_site_fract_x
    _atom_site_fract_y
    _atom_site_fract_z
    _atom_type_partial_charge
    O   O1    0.588445  0.051088  0.509765  -0.549675
    O   O2    0.948912  0.588445  0.509765  -0.549539
    O   O3    0.411555  0.948912  0.509765  -0.549539
    O   O4    0.051088  0.411555  0.509765  -0.549687
    O   O5    0.588445  0.948912  0.490235  -0.549525
    O   O6    0.948912  0.411555  0.490235  -0.549609
    O   O7    0.411555  0.051088  0.490235  -0.549693
    O   O8    0.051088  0.588445  0.490235  -0.549619
    O   O9    0.088445  0.551088  0.009765  -0.549634
    O   O10   0.448912  0.088445  0.009765  -0.549524
    O   O11   0.911555  0.448912  0.009765  -0.549535
    O   O12   0.551088  0.911555  0.009765  -0.549632
    O   O13   0.088445  0.448912  0.990235  -0.549529
    O   O14   0.448912  0.911555  0.990235  -0.549576
    O   O15   0.911555  0.551088  0.990235  -0.549639
    O   O16   0.551088  0.088445  0.990235  -0.549589
    C   C1    0.617615  0.000000  0.500000  0.659509
    C   C2    0.000000  0.617615  0.500000  0.659509
    C   C3    0.382384  0.000000  0.500000  0.659529
    C   C4    0.000000  0.382384  0.500000  0.659532
    C   C5    0.117615  0.500000  0.000000  0.659554
    C   C6    0.500000  0.117615  0.000000  0.659571
    C   C7    0.882384  0.500000  0.000000  0.659611
    C   C8    0.500000  0.882384  0.000000  0.659602
    O   O17   0.482600  0.051077  0.549497  -0.613343
    O   O18   0.948923  0.482600  0.549497  -0.613246
    O   O19   0.517400  0.948923  0.549497  -0.613223
    O   O20   0.051077  0.517400  0.549497  -0.613334
    O   O21   0.482600  0.948923  0.450503  -0.613234
    O   O22   0.948923  0.517400  0.450503  -0.613277
    O   O23   0.517400  0.051077  0.450503  -0.613353
    O   O24   0.051077  0.482600  0.450503  -0.613326
    O   O25   0.982600  0.551077  0.049497  -0.613358
    O   O26   0.448923  0.982600  0.049497  -0.613236
    O   O27   0.017400  0.448923  0.049497  -0.613233
    O   O28   0.551077  0.017400  0.049497  -0.613363
    O   O29   0.982600  0.448923  0.950503  -0.613230
    O   O30   0.448923  0.017400  0.950503  -0.613244
    O   O31   0.017400  0.551077  0.950503  -0.613357
    O   O32   0.551077  0.982600  0.950503  -0.613337
    C   C9    0.500000  0.000000  0.565856  0.927324
    C   C10   0.000000  0.500000  0.565856  0.927336
    C   C11   0.500000  0.000000  0.434144  0.927348
    C   C12   0.000000  0.500000  0.434144  0.927365
    C   C13   0.000000  0.500000  0.065856  0.927300
    C   C14   0.500000  0.000000  0.065856  0.927303
    C   C15   0.000000  0.500000  0.934144  0.927332
    C   C16   0.500000  0.000000  0.934144  0.927325
    Cu  Cu1   0.500000  0.060588  0.500000  0.962877
    Cu  Cu2   0.939412  0.500000  0.500000  0.962900
    Cu  Cu3   0.500000  0.939412  0.500000  0.962640
    Cu  Cu4   0.060588  0.500000  0.500000  0.962632
    Cu  Cu5   0.000000  0.560588  0.000000  0.962832
    Cu  Cu6   0.439412  0.000000  0.000000  0.962834
    Cu  Cu7   0.000000  0.439412  0.000000  0.962617
    Cu  Cu8   0.560588  0.000000  0.000000  0.962608
    C   C17   0.555306  0.004077  0.877820  0.325374
    C   C18   0.995923  0.555306  0.877820  0.325378
    C   C19   0.444694  0.995923  0.877820  0.325315
    C   C20   0.004077  0.444694  0.877820  0.325293
    C   C21   0.555306  0.995923  0.122180  0.325294
    C   C22   0.995923  0.444694  0.122180  0.325263
    C   C23   0.444694  0.004077  0.122180  0.325334
    C   C24   0.004077  0.555306  0.122180  0.325368
    C   C25   0.055306  0.504077  0.377820  0.325375
    C   C26   0.495923  0.055306  0.377820  0.325366
    C   C27   0.944694  0.495923  0.377820  0.325283
    C   C28   0.504077  0.944694  0.377820  0.325287
    C   C29   0.055306  0.495923  0.622180  0.325282
    C   C30   0.495923  0.944694  0.622180  0.325260
    C   C31   0.944694  0.504077  0.622180  0.325342
    C   C32   0.504077  0.055306  0.622180  0.325366
    C   C33   0.555203  0.004263  0.842087  0.199855
    C   C34   0.995736  0.555203  0.842087  0.199847
    C   C35   0.444797  0.995737  0.842087  0.199900
    C   C36   0.004263  0.444797  0.842087  0.199902
    C   C37   0.555203  0.995736  0.157913  0.199912
    C   C38   0.995736  0.444797  0.157913  0.199928
    C   C39   0.444797  0.004263  0.157913  0.199866
    C   C40   0.004263  0.555203  0.157913  0.199851
    C   C41   0.055203  0.504263  0.342087  0.199833
    C   C42   0.495736  0.055203  0.342087  0.199849
    C   C43   0.944797  0.495736  0.342087  0.199907
    C   C44   0.504263  0.944797  0.342087  0.199897
    C   C45   0.055203  0.495736  0.657913  0.199920
    C   C46   0.495736  0.944797  0.657913  0.199926
    C   C47   0.944797  0.504263  0.657913  0.199855
    C   C48   0.504263  0.055203  0.657913  0.199858
    C   C49   0.500000  0.000000  0.823985  -0.340375
    C   C50   0.000000  0.500000  0.823985  -0.340359
    C   C51   0.500000  0.000000  0.176015  -0.340377
    C   C52   0.000000  0.500000  0.176015  -0.340376
    C   C53   0.000000  0.500000  0.323985  -0.340335
    C   C54   0.500000  0.000000  0.323985  -0.340338
    C   C55   0.000000  0.500000  0.676015  -0.340353
    C   C56   0.500000  0.000000  0.676015  -0.340370
    C   C57   0.500000  0.000000  0.896026  -0.489836
    C   C58   0.000000  0.500000  0.896026  -0.489833
    C   C59   0.500000  0.000000  0.103974  -0.489795
    C   C60   0.000000  0.500000  0.103974  -0.489798
    C   C61   0.000000  0.500000  0.396026  -0.489847
    C   C62   0.500000  0.000000  0.396026  -0.489841
    C   C63   0.000000  0.500000  0.603974  -0.489823
    C   C64   0.500000  0.000000  0.603974  -0.489822
    C   C65   0.460889  0.039176  0.767864  -0.224993
    C   C66   0.960824  0.460889  0.767864  -0.225018
    C   C67   0.539111  0.960824  0.767864  -0.225008
    C   C68   0.039176  0.539111  0.767864  -0.224977
    C   C69   0.460889  0.960824  0.232136  -0.224977
    C   C70   0.960824  0.539111  0.232136  -0.224955
    C   C71   0.539111  0.039176  0.232136  -0.225024
    C   C72   0.039176  0.460889  0.232136  -0.225036
    C   C73   0.960889  0.539176  0.267864  -0.225000
    C   C74   0.460824  0.960889  0.267864  -0.224997
    C   C75   0.039111  0.460824  0.267864  -0.224960
    C   C76   0.539176  0.039111  0.267864  -0.224955
    C   C77   0.960889  0.460824  0.732136  -0.224954
    C   C78   0.460824  0.039111  0.732136  -0.224998
    C   C79   0.039111  0.539176  0.732136  -0.225001
    C   C80   0.539176  0.960889  0.732136  -0.224988
    H   H1    0.430568  0.070761  0.781552  0.160745
    H   H2    0.929239  0.430568  0.781552  0.160741
    H   H3    0.569432  0.929239  0.781552  0.160753
    H   H4    0.070761  0.569432  0.781552  0.160735
    H   H5    0.430568  0.929239  0.218448  0.160740
    H   H6    0.929239  0.569432  0.218448  0.160725
    H   H7    0.569432  0.070761  0.218448  0.160726
    H   H8    0.070761  0.430568  0.218448  0.160747
    H   H9    0.930568  0.570761  0.281552  0.160709
    H   H10   0.429239  0.930568  0.281552  0.160736
    H   H11   0.069432  0.429239  0.281552  0.160750
    H   H12   0.570761  0.069432  0.281552  0.160731
    H   H13   0.930568  0.429239  0.718448  0.160734
    H   H14   0.429239  0.069432  0.718448  0.160729
    H   H15   0.069432  0.570761  0.718448  0.160721
    H   H16   0.570761  0.930568  0.718448  0.160736
    C   C81   0.500000  0.000000  0.714053  0.384843
    C   C82   0.000000  0.500000  0.714053  0.384817
    C   C83   0.500000  0.000000  0.285947  0.384801
    C   C84   0.000000  0.500000  0.285947  0.384811
    C   C85   0.000000  0.500000  0.214053  0.384836
    C   C86   0.500000  0.000000  0.214053  0.384849
    C   C87   0.000000  0.500000  0.785947  0.384829
    C   C88   0.500000  0.000000  0.785947  0.384830
    C   C89   0.718049  0.965981  0.475541  0.392974
    C   C90   0.034019  0.718049  0.475541  0.392930
    C   C91   0.281951  0.034019  0.475541  0.393138
    C   C92   0.965981  0.281951  0.475541  0.393151
    C   C93   0.718049  0.034019  0.524459  0.393122
    C   C94   0.034019  0.281951  0.524459  0.393133
    C   C95   0.281951  0.965981  0.524459  0.393003
    C   C96   0.965981  0.718049  0.524459  0.392959
    C   C97   0.218049  0.465981  0.975541  0.392965
    C   C98   0.534019  0.218049  0.975541  0.392971
    C   C99   0.781951  0.534019  0.975541  0.393176
    C   C100  0.465981  0.781951  0.975541  0.393238
    C   C101  0.218049  0.534019  0.024459  0.393143
    C   C102  0.534019  0.781951  0.024459  0.393175
    C   C103  0.781951  0.465981  0.024459  0.393020
    C   C104  0.465981  0.218049  0.024459  0.393004
    C   C105  0.782049  0.966686  0.475295  -0.305052
    C   C106  0.033313  0.782049  0.475295  -0.305096
    C   C107  0.217951  0.033313  0.475295  -0.305210
    C   C108  0.966687  0.217951  0.475295  -0.305144
    C   C109  0.782049  0.033313  0.524705  -0.305198
    C   C110  0.033313  0.217951  0.524705  -0.305200
    C   C111  0.217951  0.966686  0.524705  -0.305071
    C   C112  0.966687  0.782049  0.524705  -0.305050
    C   C113  0.282049  0.466686  0.975295  -0.305053
    C   C114  0.533313  0.282049  0.975295  -0.305094
    C   C115  0.717951  0.533313  0.975295  -0.305194
    C   C116  0.466686  0.717951  0.975295  -0.305229
    C   C117  0.282049  0.533313  0.024705  -0.305174
    C   C118  0.533313  0.717951  0.024705  -0.305133
    C   C119  0.717951  0.466686  0.024705  -0.305091
    C   C120  0.466686  0.282049  0.024705  -0.305135
    H   H17   0.806376  0.940128  0.455793  0.177613
    H   H18   0.059872  0.806376  0.455792  0.177602
    H   H19   0.193623  0.059872  0.455792  0.177610
    H   H20   0.940128  0.193623  0.455793  0.177593
    H   H21   0.806376  0.059872  0.544208  0.177609
    H   H22   0.059872  0.193623  0.544208  0.177649
    H   H23   0.193623  0.940128  0.544207  0.177619
    H   H24   0.940128  0.806376  0.544207  0.177553
    H   H25   0.306376  0.440128  0.955793  0.177624
    H   H26   0.559872  0.306376  0.955792  0.177596
    H   H27   0.693623  0.559872  0.955792  0.177601
    H   H28   0.440128  0.693623  0.955792  0.177672
    H   H29   0.306376  0.559872  0.044208  0.177608
    H   H30   0.559872  0.693623  0.044207  0.177606
    H   H31   0.693623  0.440128  0.044207  0.177622
    H   H32   0.440128  0.306376  0.044208  0.177635
    C   C121  0.814353  0.000000  0.500000  0.016325
    C   C122  0.000000  0.814353  0.500000  0.016266
    C   C123  0.185647  0.000000  0.500000  0.016344
    C   C124  0.000000  0.185647  0.500000  0.016445
    C   C125  0.314353  0.500000  0.000000  0.016305
    C   C126  0.500000  0.314353  0.000000  0.016279
    C   C127  0.685647  0.500000  0.000000  0.016373
    C   C128  0.500000  0.685647  0.000000  0.016398
    C   C129  0.685656  0.000000  0.500000  -0.269638
    C   C130  0.000000  0.685656  0.500000  -0.269539
    C   C131  0.314343  0.000000  0.500000  -0.269663
    C   C132  0.000000  0.314343  0.500000  -0.269719
    C   C133  0.185656  0.500000  0.000000  -0.269709
    C   C134  0.500000  0.185656  0.000000  -0.269667
    C   C135  0.814343  0.500000  0.000000  -0.269789
    C   C136  0.500000  0.814343  0.000000  -0.269882
    O   O33   0.981675  0.088511  0.471624  -0.598418
    O   O34   0.911489  0.981675  0.471624  -0.598502
    O   O35   0.018325  0.911489  0.471624  -0.598471
    O   O36   0.088511  0.018325  0.471624  -0.598406
    O   O37   0.981675  0.911489  0.528376  -0.598454
    O   O38   0.911489  0.018325  0.528376  -0.598397
    O   O39   0.018325  0.088511  0.528376  -0.598446
    O   O40   0.088511  0.981675  0.528376  -0.598520
    O   O41   0.481675  0.588511  0.971624  -0.598458
    O   O42   0.411489  0.481675  0.971624  -0.598518
    O   O43   0.518325  0.411489  0.971624  -0.598469
    O   O44   0.588511  0.518325  0.971624  -0.598393
    O   O45   0.481675  0.411489  0.028376  -0.598513
    O   O46   0.411489  0.518325  0.028376  -0.598429
    O   O47   0.518325  0.588511  0.028376  -0.598449
    O   O48   0.588511  0.481675  0.028376  -0.598516
    C   C137  0.000000  0.117666  0.500000  0.743325
    C   C138  0.882334  0.000000  0.500000  0.743481
    C   C139  0.000000  0.882334  0.500000  0.743594
    C   C140  0.117666  0.000000  0.500000  0.743467
    C   C141  0.500000  0.617666  0.000000  0.743378
    C   C142  0.382334  0.500000  0.000000  0.743520
    C   C143  0.500000  0.382334  0.000000  0.743590
    C   C144  0.617666  0.500000  0.000000  0.743435
    Cu  Cu9   0.000000  0.000000  0.466299  0.949927
    Cu  Cu10  0.000000  0.000000  0.533701  0.949940
    Cu  Cu11  0.500000  0.500000  0.966299  0.949955
    Cu  Cu12  0.500000  0.500000  0.033701  0.949980
    F   F1    0.610258  0.010285  0.894588  -0.152574
    F   F2    0.989715  0.610258  0.894588  -0.152568
    F   F3    0.389742  0.989715  0.894588  -0.152557
    F   F4    0.010285  0.389742  0.894588  -0.152559
    F   F5    0.610258  0.989715  0.105412  -0.152558
    F   F6    0.989715  0.389742  0.105412  -0.152553
    F   F7    0.389742  0.010285  0.105412  -0.152560
    F   F8    0.010285  0.610258  0.105412  -0.152566
    F   F9    0.110258  0.510285  0.394588  -0.152572
    F   F10   0.489715  0.110258  0.394588  -0.152562
    F   F11   0.889742  0.489715  0.394588  -0.152547
    F   F12   0.510285  0.889742  0.394588  -0.152555
    F   F13   0.110258  0.489715  0.605412  -0.152556
    F   F14   0.489715  0.889742  0.605412  -0.152551
    F   F15   0.889742  0.510285  0.605412  -0.152559
    F   F16   0.510285  0.110258  0.605412  -0.152565
    F   F17   0.609760  0.011226  0.825006  -0.167950
    F   F18   0.988774  0.609760  0.825006  -0.167945
    F   F19   0.390240  0.988774  0.825006  -0.167956
    F   F20   0.011226  0.390240  0.825006  -0.167953
    F   F21   0.609760  0.988774  0.174994  -0.167949
    F   F22   0.988774  0.390240  0.174994  -0.167957
    F   F23   0.390240  0.011226  0.174994  -0.167954
    F   F24   0.011226  0.609760  0.174994  -0.167946
    F   F25   0.109760  0.511226  0.325006  -0.167954
    F   F26   0.488774  0.109760  0.325006  -0.167948
    F   F27   0.890240  0.488774  0.325006  -0.167943
    F   F28   0.511226  0.890240  0.325006  -0.167952
    F   F29   0.109760  0.488774  0.674994  -0.167952
    F   F30   0.488774  0.890240  0.674994  -0.167958
    F   F31   0.890240  0.511226  0.674994  -0.167952
    F   F32   0.511226  0.109760  0.674994  -0.167948
    F   F33   0.687526  0.933385  0.450780  -0.179299
    F   F34   0.066614  0.687526  0.450780  -0.179284
    F   F35   0.312473  0.066614  0.450780  -0.179327
    F   F36   0.933385  0.312473  0.450780  -0.179339
    F   F37   0.687526  0.066614  0.549220  -0.179332
    F   F38   0.066614  0.312473  0.549220  -0.179326
    F   F39   0.312473  0.933385  0.549220  -0.179299
    F   F40   0.933385  0.687526  0.549220  -0.179300
    F   F41   0.187526  0.433385  0.950780  -0.179287
    F   F42   0.566614  0.187526  0.950780  -0.179287
    F   F43   0.812473  0.566614  0.950780  -0.179344
    F   F44   0.433385  0.812473  0.950780  -0.179361
    F   F45   0.187526  0.566614  0.049220  -0.179346
    F   F46   0.566614  0.812473  0.049220  -0.179343
    F   F47   0.812473  0.433385  0.049220  -0.179293
    F   F48   0.433385  0.187526  0.049220  -0.179298
