# Generated by REPEAT Assigner based on pymatgen
data_DB0-m2_o1_o3_f0_nbo.sym.49_sqe
_audit_creation_date              2022-05-24
_audit_creation_method            REPEAT_Assigner
_cell_length_a                    21.513371
_cell_length_b                    21.513371
_cell_length_c                    38.468931
_cell_angle_alpha                 90.000000
_cell_angle_beta                  90.000000
_cell_angle_gamma                 90.000000
_cell_volume                      17804.387444
_symmetry_space_group_name_H-M    P1
_symmetry_Int_Tables_number       1
loop_
    _symmetry_equiv_pos_site_id
    _symmetry_equiv_pos_as_xyz
    1  x,y,z
loop_
    _atom_site_type_symbol
    _atom_site_label
    _atom_site_fract_x
    _atom_site_fract_y
    _atom_site_fract_z
    _atom_type_partial_charge
    O   O1    0.588675  0.051435  0.490634  -0.624156
    O   O2    0.948564  0.588675  0.490634  -0.624236
    O   O3    0.411324  0.948564  0.490634  -0.624214
    O   O4    0.051435  0.411324  0.490634  -0.624151
    O   O5    0.588675  0.948564  0.509366  -0.624229
    O   O6    0.948564  0.411324  0.509366  -0.624222
    O   O7    0.411324  0.051435  0.509366  -0.624140
    O   O8    0.051435  0.588675  0.509366  -0.624167
    O   O9    0.088675  0.551435  0.990634  -0.624122
    O   O10   0.448564  0.088675  0.990634  -0.624142
    O   O11   0.911324  0.448564  0.990634  -0.624157
    O   O12   0.551435  0.911324  0.990634  -0.624127
    O   O13   0.088675  0.448564  0.009366  -0.624179
    O   O14   0.448564  0.911324  0.009366  -0.624145
    O   O15   0.911324  0.551435  0.009366  -0.624125
    O   O16   0.551435  0.088675  0.009366  -0.624126
    C   C1    0.617620  0.000000  0.500000  0.817730
    C   C2    0.000000  0.617620  0.500000  0.817719
    C   C3    0.382379  0.000000  0.500000  0.817704
    C   C4    0.000000  0.382379  0.500000  0.817694
    C   C5    0.117620  0.500000  0.000000  0.817638
    C   C6    0.500000  0.117620  0.000000  0.817606
    C   C7    0.882379  0.500000  0.000000  0.817616
    C   C8    0.500000  0.882379  0.000000  0.817590
    O   O17   0.516777  0.051386  0.549696  -0.576222
    O   O18   0.948614  0.516777  0.549696  -0.576244
    O   O19   0.483222  0.948614  0.549696  -0.576232
    O   O20   0.051386  0.483222  0.549696  -0.576232
    O   O21   0.516777  0.948614  0.450304  -0.576243
    O   O22   0.948614  0.483222  0.450304  -0.576239
    O   O23   0.483222  0.051386  0.450304  -0.576225
    O   O24   0.051386  0.516777  0.450304  -0.576232
    O   O25   0.016777  0.551386  0.049696  -0.576213
    O   O26   0.448614  0.016777  0.049696  -0.576225
    O   O27   0.983222  0.448614  0.049696  -0.576230
    O   O28   0.551386  0.983222  0.049696  -0.576215
    O   O29   0.016777  0.448614  0.950304  -0.576217
    O   O30   0.448614  0.983222  0.950304  -0.576226
    O   O31   0.983222  0.551386  0.950304  -0.576208
    O   O32   0.551386  0.016777  0.950304  -0.576208
    C   C9    0.500000  0.000000  0.565980  0.625192
    C   C10   0.000000  0.500000  0.565980  0.625170
    C   C11   0.500000  0.000000  0.434020  0.625206
    C   C12   0.000000  0.500000  0.434020  0.625161
    C   C13   0.000000  0.500000  0.065980  0.625184
    C   C14   0.500000  0.000000  0.065980  0.625215
    C   C15   0.000000  0.500000  0.934020  0.625205
    C   C16   0.500000  0.000000  0.934020  0.625219
    Cu  Cu1   0.500000  0.060839  0.500000  0.951072
    Cu  Cu2   0.939161  0.500000  0.500000  0.951041
    Cu  Cu3   0.500000  0.939161  0.500000  0.951128
    Cu  Cu4   0.060839  0.500000  0.500000  0.950971
    Cu  Cu5   0.000000  0.560839  0.000000  0.951042
    Cu  Cu6   0.439161  0.000000  0.000000  0.951033
    Cu  Cu7   0.000000  0.439161  0.000000  0.951101
    Cu  Cu8   0.560839  0.000000  0.000000  0.951003
    C   C17   0.555444  0.001721  0.877939  0.049431
    C   C18   0.998278  0.555444  0.877939  0.049451
    C   C19   0.444556  0.998278  0.877939  0.049447
    C   C20   0.001721  0.444556  0.877939  0.049439
    C   C21   0.555444  0.998279  0.122061  0.049430
    C   C22   0.998278  0.444556  0.122061  0.049432
    C   C23   0.444556  0.001721  0.122061  0.049448
    C   C24   0.001721  0.555444  0.122061  0.049445
    C   C25   0.055444  0.501721  0.377939  0.049444
    C   C26   0.498278  0.055444  0.377939  0.049480
    C   C27   0.944556  0.498279  0.377939  0.049401
    C   C28   0.501721  0.944556  0.377939  0.049446
    C   C29   0.055444  0.498279  0.622061  0.049445
    C   C30   0.498278  0.944556  0.622061  0.049437
    C   C31   0.944556  0.501721  0.622061  0.049422
    C   C32   0.501721  0.055444  0.622061  0.049480
    H   H1    0.599371  0.002908  0.891532  0.078622
    H   H2    0.997092  0.599370  0.891532  0.078618
    H   H3    0.400629  0.997092  0.891532  0.078620
    H   H4    0.002908  0.400629  0.891532  0.078622
    H   H5    0.599371  0.997092  0.108468  0.078622
    H   H6    0.997092  0.400629  0.108469  0.078623
    H   H7    0.400630  0.002908  0.108468  0.078618
    H   H8    0.002908  0.599371  0.108468  0.078619
    H   H9    0.099370  0.502908  0.391532  0.078621
    H   H10   0.497092  0.099370  0.391532  0.078609
    H   H11   0.900629  0.497092  0.391532  0.078630
    H   H12   0.502908  0.900629  0.391531  0.078619
    H   H13   0.099371  0.497092  0.608468  0.078619
    H   H14   0.497092  0.900629  0.608468  0.078617
    H   H15   0.900629  0.502908  0.608469  0.078624
    H   H16   0.502908  0.099370  0.608468  0.078608
    C   C33   0.555429  0.001021  0.842128  -0.206718
    C   C34   0.998979  0.555429  0.842128  -0.206721
    C   C35   0.444571  0.998979  0.842128  -0.206738
    C   C36   0.001021  0.444571  0.842128  -0.206720
    C   C37   0.555429  0.998979  0.157872  -0.206720
    C   C38   0.998979  0.444571  0.157872  -0.206729
    C   C39   0.444571  0.001021  0.157872  -0.206737
    C   C40   0.001021  0.555429  0.157872  -0.206726
    C   C41   0.055429  0.501021  0.342128  -0.206713
    C   C42   0.498979  0.055429  0.342128  -0.206745
    C   C43   0.944571  0.498979  0.342128  -0.206705
    C   C44   0.501021  0.944571  0.342128  -0.206732
    C   C45   0.055429  0.498979  0.657872  -0.206722
    C   C46   0.498979  0.944571  0.657872  -0.206727
    C   C47   0.944571  0.501021  0.657872  -0.206714
    C   C48   0.501021  0.055429  0.657872  -0.206741
    H   H17   0.599208  0.002715  0.828389  0.110209
    H   H18   0.997284  0.599208  0.828390  0.110207
    H   H19   0.400792  0.997284  0.828390  0.110215
    H   H20   0.002715  0.400792  0.828390  0.110210
    H   H21   0.599207  0.997285  0.171611  0.110210
    H   H22   0.997285  0.400792  0.171611  0.110211
    H   H23   0.400791  0.002715  0.171610  0.110216
    H   H24   0.002715  0.599209  0.171610  0.110209
    H   H25   0.099208  0.502715  0.328390  0.110210
    H   H26   0.497284  0.099209  0.328390  0.110216
    H   H27   0.900792  0.497285  0.328389  0.110211
    H   H28   0.502715  0.900793  0.328389  0.110214
    H   H29   0.099208  0.497285  0.671610  0.110215
    H   H30   0.497284  0.900792  0.671610  0.110216
    H   H31   0.900792  0.502715  0.671611  0.110213
    H   H32   0.502715  0.099208  0.671610  0.110215
    C   C49   0.500000  0.000000  0.824057  0.131427
    C   C50   0.000000  0.500000  0.824057  0.131411
    C   C51   0.500000  0.000000  0.175943  0.131425
    C   C52   0.000000  0.500000  0.175943  0.131432
    C   C53   0.000000  0.500000  0.324057  0.131422
    C   C54   0.500000  0.000000  0.324057  0.131432
    C   C55   0.000000  0.500000  0.675943  0.131430
    C   C56   0.500000  0.000000  0.675943  0.131428
    C   C57   0.500000  0.000000  0.896006  -0.129830
    C   C58   0.000000  0.500000  0.896005  -0.129823
    C   C59   0.500000  0.000000  0.103994  -0.129823
    C   C60   0.000000  0.500000  0.103994  -0.129809
    C   C61   0.000000  0.500000  0.396005  -0.129808
    C   C62   0.500000  0.000000  0.396006  -0.129847
    C   C63   0.000000  0.500000  0.603994  -0.129823
    C   C64   0.500000  0.000000  0.603994  -0.129837
    C   C65   0.460536  0.038954  0.767911  -0.137474
    C   C66   0.961046  0.460536  0.767911  -0.137491
    C   C67   0.539464  0.961046  0.767911  -0.137479
    C   C68   0.038954  0.539464  0.767911  -0.137476
    C   C69   0.460536  0.961046  0.232089  -0.137469
    C   C70   0.961046  0.539464  0.232089  -0.137476
    C   C71   0.539464  0.038954  0.232089  -0.137467
    C   C72   0.038954  0.460536  0.232089  -0.137468
    C   C73   0.960536  0.538954  0.267911  -0.137478
    C   C74   0.461046  0.960536  0.267911  -0.137493
    C   C75   0.039464  0.461046  0.267911  -0.137481
    C   C76   0.538954  0.039464  0.267911  -0.137476
    C   C77   0.960536  0.461046  0.732089  -0.137471
    C   C78   0.461046  0.039464  0.732089  -0.137478
    C   C79   0.039464  0.538954  0.732089  -0.137470
    C   C80   0.538954  0.960536  0.732089  -0.137477
    H   H33   0.429882  0.070266  0.781649  0.111950
    H   H34   0.929734  0.429882  0.781649  0.111953
    H   H35   0.570118  0.929734  0.781649  0.111951
    H   H36   0.070266  0.570118  0.781649  0.111948
    H   H37   0.429883  0.929735  0.218350  0.111948
    H   H38   0.929734  0.570117  0.218350  0.111947
    H   H39   0.570118  0.070267  0.218352  0.111949
    H   H40   0.070266  0.429882  0.218351  0.111948
    H   H41   0.929882  0.570266  0.281649  0.111949
    H   H42   0.429733  0.929881  0.281648  0.111956
    H   H43   0.070117  0.429734  0.281650  0.111946
    H   H44   0.570265  0.070117  0.281650  0.111945
    H   H45   0.929882  0.429734  0.718351  0.111949
    H   H46   0.429734  0.070118  0.718351  0.111949
    H   H47   0.070118  0.570266  0.718351  0.111944
    H   H48   0.570266  0.929882  0.718351  0.111949
    C   C81   0.500000  0.000000  0.714010  0.066515
    C   C82   0.000000  0.500000  0.714010  0.066511
    C   C83   0.500000  0.000000  0.285990  0.066519
    C   C84   0.000000  0.500000  0.285990  0.066521
    C   C85   0.000000  0.500000  0.214010  0.066516
    C   C86   0.500000  0.000000  0.214010  0.066515
    C   C87   0.000000  0.500000  0.785990  0.066532
    C   C88   0.500000  0.000000  0.785990  0.066522
    C   C89   0.717047  0.994328  0.468768  0.023942
    C   C90   0.005671  0.717047  0.468768  0.024029
    C   C91   0.282953  0.005671  0.468768  0.024037
    C   C92   0.994328  0.282953  0.468768  0.023955
    C   C93   0.717047  0.005671  0.531232  0.024019
    C   C94   0.005671  0.282953  0.531232  0.024031
    C   C95   0.282952  0.994328  0.531232  0.023940
    C   C96   0.994328  0.717047  0.531232  0.023937
    C   C97   0.217047  0.494328  0.968768  0.023949
    C   C98   0.505671  0.217047  0.968768  0.023932
    C   C99   0.782953  0.505671  0.968768  0.023949
    C   C100  0.494328  0.782953  0.968768  0.023938
    C   C101  0.217047  0.505671  0.031232  0.024007
    C   C102  0.505671  0.782953  0.031232  0.023938
    C   C103  0.782953  0.494328  0.031232  0.023921
    C   C104  0.494328  0.217047  0.031232  0.023920
    C   C105  0.781526  0.994002  0.469054  -0.119218
    C   C106  0.005998  0.781526  0.469054  -0.119191
    C   C107  0.218474  0.005998  0.469054  -0.119191
    C   C108  0.994002  0.218474  0.469054  -0.119205
    C   C109  0.781526  0.005998  0.530946  -0.119191
    C   C110  0.005998  0.218474  0.530946  -0.119177
    C   C111  0.218474  0.994002  0.530946  -0.119194
    C   C112  0.994002  0.781526  0.530946  -0.119208
    C   C113  0.281526  0.494002  0.969054  -0.119195
    C   C114  0.505998  0.281526  0.969054  -0.119199
    C   C115  0.718474  0.505998  0.969054  -0.119203
    C   C116  0.494002  0.718474  0.969054  -0.119209
    C   C117  0.281526  0.505998  0.030946  -0.119159
    C   C118  0.505998  0.718474  0.030946  -0.119202
    C   C119  0.718474  0.494002  0.030946  -0.119194
    C   C120  0.494002  0.281526  0.030946  -0.119197
    H   H49   0.807907  0.989841  0.445390  0.079548
    H   H50   0.010159  0.807907  0.445390  0.079540
    H   H51   0.192092  0.010159  0.445390  0.079536
    H   H52   0.989841  0.192093  0.445390  0.079542
    H   H53   0.807907  0.010159  0.554610  0.079539
    H   H54   0.010159  0.192093  0.554610  0.079531
    H   H55   0.192093  0.989841  0.554610  0.079537
    H   H56   0.989841  0.807907  0.554610  0.079547
    H   H57   0.307907  0.489841  0.945390  0.079535
    H   H58   0.510159  0.307907  0.945390  0.079534
    H   H59   0.692093  0.510159  0.945390  0.079535
    H   H60   0.489841  0.692093  0.945390  0.079539
    H   H61   0.307907  0.510159  0.054610  0.079525
    H   H62   0.510159  0.692093  0.054610  0.079537
    H   H63   0.692093  0.489841  0.054610  0.079534
    H   H64   0.489841  0.307907  0.054610  0.079535
    C   C121  0.813577  0.000000  0.500000  -0.067537
    C   C122  0.000000  0.813577  0.500000  -0.067527
    C   C123  0.186422  0.000000  0.500000  -0.067577
    C   C124  0.000000  0.186422  0.500000  -0.067567
    C   C125  0.313577  0.500000  0.000000  -0.067598
    C   C126  0.500000  0.313577  0.000000  -0.067544
    C   C127  0.686423  0.500000  0.000000  -0.067566
    C   C128  0.500000  0.686423  0.000000  -0.067559
    C   C129  0.685445  0.000000  0.500000  -0.168005
    C   C130  0.000000  0.685445  0.500000  -0.168010
    C   C131  0.314555  0.000000  0.500000  -0.168013
    C   C132  0.000000  0.314555  0.500000  -0.168018
    C   C133  0.185445  0.500000  0.000000  -0.167974
    C   C134  0.500000  0.185445  0.000000  -0.167934
    C   C135  0.814555  0.500000  0.000000  -0.167938
    C   C136  0.500000  0.814555  0.000000  -0.167932
    O   O33   0.983060  0.088893  0.471356  -0.561965
    O   O34   0.911107  0.983060  0.471356  -0.561968
    O   O35   0.016940  0.911107  0.471356  -0.561969
    O   O36   0.088893  0.016940  0.471356  -0.561962
    O   O37   0.983060  0.911107  0.528644  -0.561970
    O   O38   0.911107  0.016940  0.528644  -0.561970
    O   O39   0.016940  0.088893  0.528644  -0.561965
    O   O40   0.088893  0.983060  0.528644  -0.561963
    O   O41   0.483060  0.588893  0.971356  -0.561933
    O   O42   0.411107  0.483060  0.971356  -0.561927
    O   O43   0.516940  0.411107  0.971356  -0.561923
    O   O44   0.588893  0.516940  0.971356  -0.561935
    O   O45   0.483060  0.411107  0.028644  -0.561932
    O   O46   0.411107  0.516940  0.028644  -0.561938
    O   O47   0.516940  0.588893  0.028644  -0.561942
    O   O48   0.588893  0.483060  0.028644  -0.561940
    C   C137  0.000000  0.118189  0.500000  0.675009
    C   C138  0.881811  0.000000  0.500000  0.674961
    C   C139  0.000000  0.881811  0.500000  0.674966
    C   C140  0.118189  0.000000  0.500000  0.675001
    C   C141  0.500000  0.618189  0.000000  0.675018
    C   C142  0.381811  0.500000  0.000000  0.675016
    C   C143  0.500000  0.381811  0.000000  0.674986
    C   C144  0.618189  0.500000  0.000000  0.675019
    Cu  Cu9   0.000000  0.000000  0.466087  0.893671
    Cu  Cu10  0.000000  0.000000  0.533913  0.893680
    Cu  Cu11  0.500000  0.500000  0.966087  0.893761
    Cu  Cu12  0.500000  0.500000  0.033913  0.893773
    C   C145  0.679317  0.987822  0.435895  -0.051491
    C   C146  0.717385  0.980354  0.402875  0.171479
    C   C147  0.673948  0.973845  0.372042  -0.279449
    H   H65   0.644396  0.932031  0.375337  0.062183
    H   H66   0.644053  0.015668  0.369895  0.051795
    H   H67   0.701749  0.968939  0.347930  0.050393
    H   H68   0.746858  0.022015  0.398749  -0.007401
    H   H69   0.746439  0.937856  0.404523  -0.007260
    H   H70   0.648861  0.946456  0.438316  0.051870
    H   H71   0.649873  0.029721  0.432679  0.055743
    C   C148  0.012177  0.679317  0.435895  -0.051781
    C   C149  0.019646  0.717385  0.402875  0.171532
    C   C150  0.026154  0.673948  0.372042  -0.279442
    H   H72   0.067968  0.644396  0.375337  0.062176
    H   H73   0.984332  0.644053  0.369895  0.051789
    H   H74   0.031061  0.701749  0.347930  0.050391
    H   H75   0.977985  0.746858  0.398749  -0.007411
    H   H76   0.062144  0.746439  0.404523  -0.007245
    H   H77   0.053544  0.648861  0.438316  0.051919
    H   H78   0.970279  0.649873  0.432679  0.055873
    C   C151  0.320683  0.012177  0.435895  -0.051773
    C   C152  0.282614  0.019646  0.402875  0.171515
    C   C153  0.326052  0.026154  0.372042  -0.279426
    H   H79   0.355603  0.067968  0.375337  0.062177
    H   H80   0.355946  0.984332  0.369895  0.051788
    H   H81   0.298251  0.031061  0.347930  0.050381
    H   H82   0.253142  0.977985  0.398749  -0.007410
    H   H83   0.253560  0.062144  0.404523  -0.007244
    H   H84   0.351139  0.053544  0.438316  0.051920
    H   H85   0.350126  0.970279  0.432679  0.055874
    C   C154  0.987822  0.320683  0.435895  -0.051489
    C   C155  0.980354  0.282614  0.402875  0.171473
    C   C156  0.973845  0.326052  0.372042  -0.279449
    H   H86   0.932031  0.355603  0.375337  0.062186
    H   H87   0.015668  0.355946  0.369895  0.051796
    H   H88   0.968938  0.298251  0.347930  0.050391
    H   H89   0.022015  0.253142  0.398749  -0.007396
    H   H90   0.937856  0.253560  0.404523  -0.007255
    H   H91   0.946456  0.351139  0.438316  0.051863
    H   H92   0.029721  0.350126  0.432679  0.055742
    C   C157  0.679317  0.012177  0.564105  -0.051776
    C   C158  0.717385  0.019646  0.597125  0.171531
    C   C159  0.673948  0.026154  0.627958  -0.279435
    H   H93   0.644396  0.067968  0.624663  0.062176
    H   H94   0.644053  0.984332  0.630105  0.051788
    H   H95   0.701749  0.031061  0.652070  0.050386
    H   H96   0.746858  0.977985  0.601251  -0.007413
    H   H97   0.746439  0.062144  0.595477  -0.007248
    H   H98   0.648861  0.053544  0.561684  0.051920
    H   H99   0.649873  0.970279  0.567321  0.055874
    C   C160  0.012177  0.320683  0.564105  -0.051772
    C   C161  0.019646  0.282614  0.597125  0.171518
    C   C162  0.026154  0.326052  0.627958  -0.279435
    H   H100  0.067968  0.355603  0.624663  0.062179
    H   H101  0.984332  0.355946  0.630105  0.051788
    H   H102  0.031061  0.298251  0.652070  0.050385
    H   H103  0.977985  0.253142  0.601251  -0.007407
    H   H104  0.062144  0.253560  0.595477  -0.007241
    H   H105  0.053544  0.351139  0.561684  0.051916
    H   H106  0.970279  0.350126  0.567321  0.055871
    C   C163  0.320683  0.987822  0.564105  -0.051486
    C   C164  0.282614  0.980354  0.597125  0.171474
    C   C165  0.326052  0.973845  0.627958  -0.279444
    H   H107  0.355603  0.932031  0.624663  0.062185
    H   H108  0.355946  0.015668  0.630105  0.051796
    H   H109  0.298251  0.968938  0.652070  0.050387
    H   H110  0.253142  0.022015  0.601251  -0.007400
    H   H111  0.253560  0.937856  0.595477  -0.007258
    H   H112  0.351139  0.946456  0.561684  0.051865
    H   H113  0.350126  0.029721  0.567321  0.055744
    C   C166  0.987822  0.679317  0.564105  -0.051481
    C   C167  0.980354  0.717385  0.597125  0.171473
    C   C168  0.973845  0.673948  0.627958  -0.279445
    H   H114  0.932031  0.644396  0.624663  0.062180
    H   H115  0.015667  0.644053  0.630105  0.051792
    H   H116  0.968938  0.701749  0.652070  0.050395
    H   H117  0.022015  0.746858  0.601251  -0.007398
    H   H118  0.937856  0.746439  0.595477  -0.007256
    H   H119  0.946456  0.648861  0.561684  0.051862
    H   H120  0.029721  0.649873  0.567321  0.055741
    C   C169  0.179317  0.487822  0.935895  -0.051475
    C   C170  0.217385  0.480354  0.902875  0.171472
    C   C171  0.173948  0.473845  0.872042  -0.279453
    H   H121  0.144396  0.432031  0.875337  0.062184
    H   H122  0.144053  0.515668  0.869895  0.051796
    H   H123  0.201749  0.468938  0.847930  0.050391
    H   H124  0.246858  0.522015  0.898749  -0.007400
    H   H125  0.246439  0.437856  0.904523  -0.007258
    H   H126  0.148861  0.446456  0.938316  0.051858
    H   H127  0.149873  0.529721  0.932679  0.055738
    C   C172  0.512177  0.179317  0.935895  -0.051471
    C   C173  0.519646  0.217385  0.902875  0.171491
    C   C174  0.526154  0.173948  0.872042  -0.279466
    H   H128  0.567969  0.144396  0.875337  0.062183
    H   H129  0.484332  0.144053  0.869895  0.051802
    H   H130  0.531061  0.201749  0.847930  0.050395
    H   H131  0.477985  0.246858  0.898749  -0.007406
    H   H132  0.562144  0.246439  0.904523  -0.007255
    H   H133  0.553544  0.148861  0.938316  0.051843
    H   H134  0.470279  0.149873  0.932679  0.055740
    C   C175  0.820683  0.512177  0.935895  -0.051470
    C   C176  0.782614  0.519646  0.902875  0.171487
    C   C177  0.826052  0.526154  0.872042  -0.279457
    H   H135  0.855603  0.567968  0.875337  0.062186
    H   H136  0.855946  0.484332  0.869895  0.051802
    H   H137  0.798251  0.531061  0.847930  0.050384
    H   H138  0.753142  0.477985  0.898749  -0.007409
    H   H139  0.753560  0.562144  0.904523  -0.007256
    H   H140  0.851139  0.553544  0.938316  0.051838
    H   H141  0.850126  0.470279  0.932679  0.055740
    C   C178  0.487822  0.820683  0.935895  -0.051458
    C   C179  0.480354  0.782614  0.902875  0.171479
    C   C180  0.473845  0.826052  0.872042  -0.279455
    H   H142  0.432031  0.855603  0.875337  0.062186
    H   H143  0.515667  0.855946  0.869895  0.051799
    H   H144  0.468938  0.798251  0.847930  0.050387
    H   H145  0.522015  0.753142  0.898749  -0.007401
    H   H146  0.437856  0.753560  0.904523  -0.007256
    H   H147  0.446456  0.851139  0.938316  0.051843
    H   H148  0.529721  0.850126  0.932679  0.055730
    C   C181  0.179317  0.512177  0.064105  -0.051756
    C   C182  0.217385  0.519646  0.097125  0.171518
    C   C183  0.173948  0.526154  0.127958  -0.279450
    H   H149  0.144396  0.567969  0.124663  0.062181
    H   H150  0.144053  0.484332  0.130105  0.051792
    H   H151  0.201749  0.531061  0.152070  0.050387
    H   H152  0.246858  0.477985  0.101251  -0.007411
    H   H153  0.246439  0.562144  0.095477  -0.007243
    H   H154  0.148861  0.553544  0.061684  0.051919
    H   H155  0.149873  0.470279  0.067321  0.055868
    C   C184  0.512177  0.820683  0.064105  -0.051471
    C   C185  0.519646  0.782614  0.097125  0.171490
    C   C186  0.526154  0.826052  0.127958  -0.279462
    H   H156  0.567968  0.855603  0.124663  0.062187
    H   H157  0.484332  0.855946  0.130105  0.051803
    H   H158  0.531061  0.798251  0.152070  0.050388
    H   H159  0.477985  0.753142  0.101251  -0.007406
    H   H160  0.562144  0.753560  0.095477  -0.007253
    H   H161  0.553544  0.851139  0.061684  0.051838
    H   H162  0.470279  0.850127  0.067321  0.055736
    C   C187  0.820683  0.487822  0.064105  -0.051449
    C   C188  0.782614  0.480354  0.097125  0.171471
    C   C189  0.826052  0.473845  0.127958  -0.279457
    H   H163  0.855603  0.432031  0.124663  0.062189
    H   H164  0.855946  0.515667  0.130105  0.051800
    H   H165  0.798251  0.468938  0.152070  0.050385
    H   H166  0.753142  0.522015  0.101251  -0.007400
    H   H167  0.753560  0.437856  0.095477  -0.007257
    H   H168  0.851139  0.446456  0.061684  0.051847
    H   H169  0.850126  0.529721  0.067321  0.055734
    C   C190  0.487822  0.179317  0.064105  -0.051459
    C   C191  0.480354  0.217385  0.097125  0.171496
    C   C192  0.473845  0.173948  0.127958  -0.279468
    H   H170  0.432031  0.144396  0.124663  0.062188
    H   H171  0.515668  0.144053  0.130105  0.051797
    H   H172  0.468938  0.201749  0.152070  0.050395
    H   H173  0.522015  0.246858  0.101251  -0.007405
    H   H174  0.437856  0.246439  0.095477  -0.007260
    H   H175  0.446456  0.148861  0.061684  0.051845
    H   H176  0.529721  0.149873  0.067321  0.055731
