# Generated by REPEAT Assigner based on pymatgen
data_DB0-m2_o1_o3_f0_nbo.sym.12
_audit_creation_date              2022-05-24
_audit_creation_method            REPEAT_Assigner
_cell_length_a                    21.507767
_cell_length_b                    21.507767
_cell_length_c                    38.521648
_cell_angle_alpha                 90.000000
_cell_angle_beta                  90.000000
_cell_angle_gamma                 90.000000
_cell_volume                      17819.499749
_symmetry_space_group_name_H-M    P1
_symmetry_Int_Tables_number       1
loop_
    _symmetry_equiv_pos_site_id
    _symmetry_equiv_pos_as_xyz
    1  x,y,z
loop_
    _atom_site_type_symbol
    _atom_site_label
    _atom_site_fract_x
    _atom_site_fract_y
    _atom_site_fract_z
    _atom_type_partial_charge
    O   O1    0.588608  0.051252  0.509663  -0.586214
    O   O2    0.948748  0.588608  0.509663  -0.586202
    O   O3    0.411392  0.948748  0.509663  -0.586208
    O   O4    0.051252  0.411392  0.509663  -0.586219
    O   O5    0.588608  0.948748  0.490337  -0.586204
    O   O6    0.948748  0.411392  0.490337  -0.586208
    O   O7    0.411392  0.051252  0.490337  -0.586220
    O   O8    0.051252  0.588608  0.490337  -0.586215
    O   O9    0.088608  0.551252  0.009663  -0.586226
    O   O10   0.448748  0.088608  0.009663  -0.586232
    O   O11   0.911392  0.448748  0.009663  -0.586217
    O   O12   0.551252  0.911392  0.009663  -0.586213
    O   O13   0.088608  0.448748  0.990337  -0.586220
    O   O14   0.448748  0.911392  0.990337  -0.586229
    O   O15   0.911392  0.551252  0.990337  -0.586222
    O   O16   0.551252  0.088608  0.990337  -0.586216
    C   C1    0.617728  0.000000  0.500000  0.651796
    C   C2    0.000000  0.617728  0.500000  0.651798
    C   C3    0.382272  0.000000  0.500000  0.651809
    C   C4    0.000000  0.382272  0.500000  0.651808
    C   C5    0.117728  0.500000  0.000000  0.651825
    C   C6    0.500000  0.117728  0.000000  0.651824
    C   C7    0.882272  0.500000  0.000000  0.651846
    C   C8    0.500000  0.882272  0.000000  0.651846
    O   O17   0.482842  0.051311  0.549592  -0.619756
    O   O18   0.948689  0.482842  0.549592  -0.619746
    O   O19   0.517158  0.948689  0.549592  -0.619748
    O   O20   0.051311  0.517158  0.549592  -0.619755
    O   O21   0.482842  0.948689  0.450408  -0.619748
    O   O22   0.948689  0.517158  0.450408  -0.619746
    O   O23   0.517158  0.051311  0.450408  -0.619756
    O   O24   0.051311  0.482842  0.450408  -0.619756
    O   O25   0.982842  0.551311  0.049592  -0.619753
    O   O26   0.448689  0.982842  0.049592  -0.619760
    O   O27   0.017158  0.448689  0.049592  -0.619753
    O   O28   0.551311  0.017158  0.049592  -0.619751
    O   O29   0.982842  0.448689  0.950408  -0.619749
    O   O30   0.448689  0.017158  0.950408  -0.619765
    O   O31   0.017158  0.551311  0.950408  -0.619756
    O   O32   0.551311  0.982842  0.950408  -0.619749
    C   C9    0.500000  0.000000  0.565850  0.785181
    C   C10   0.000000  0.500000  0.565850  0.785176
    C   C11   0.500000  0.000000  0.434150  0.785184
    C   C12   0.000000  0.500000  0.434150  0.785178
    C   C13   0.000000  0.500000  0.065850  0.785181
    C   C14   0.500000  0.000000  0.065850  0.785184
    C   C15   0.000000  0.500000  0.934150  0.785180
    C   C16   0.500000  0.000000  0.934150  0.785189
    Cu  Cu1   0.500000  0.060757  0.500000  0.960550
    Cu  Cu2   0.939243  0.500000  0.500000  0.960532
    Cu  Cu3   0.500000  0.939243  0.500000  0.960530
    Cu  Cu4   0.060757  0.500000  0.500000  0.960544
    Cu  Cu5   0.000000  0.560757  0.000000  0.960542
    Cu  Cu6   0.439243  0.000000  0.000000  0.960520
    Cu  Cu7   0.000000  0.439243  0.000000  0.960535
    Cu  Cu8   0.560757  0.000000  0.000000  0.960581
    C   C17   0.555188  0.005416  0.878154  0.072276
    C   C18   0.994584  0.555187  0.878154  0.072273
    C   C19   0.444812  0.994584  0.878154  0.072268
    C   C20   0.005416  0.444812  0.878154  0.072265
    C   C21   0.555188  0.994584  0.121846  0.072272
    C   C22   0.994584  0.444812  0.121846  0.072266
    C   C23   0.444813  0.005416  0.121846  0.072267
    C   C24   0.005416  0.555187  0.121846  0.072277
    C   C25   0.055188  0.505416  0.378154  0.072262
    C   C26   0.494584  0.055187  0.378154  0.072266
    C   C27   0.944813  0.494584  0.378154  0.072262
    C   C28   0.505416  0.944812  0.378154  0.072261
    C   C29   0.055188  0.494584  0.621846  0.072264
    C   C30   0.494584  0.944812  0.621846  0.072255
    C   C31   0.944813  0.505416  0.621846  0.072264
    C   C32   0.505416  0.055187  0.621846  0.072264
    H   H1    0.598752  0.010605  0.891826  0.101681
    H   H2    0.989396  0.598752  0.891826  0.101680
    H   H3    0.401248  0.989396  0.891826  0.101683
    H   H4    0.010605  0.401248  0.891826  0.101682
    H   H5    0.598752  0.989395  0.108174  0.101682
    H   H6    0.989395  0.401248  0.108174  0.101684
    H   H7    0.401248  0.010604  0.108174  0.101678
    H   H8    0.010604  0.598752  0.108174  0.101677
    H   H9    0.098752  0.510604  0.391826  0.101685
    H   H10   0.489396  0.098752  0.391826  0.101682
    H   H11   0.901248  0.489395  0.391826  0.101682
    H   H12   0.510605  0.901248  0.391826  0.101683
    H   H13   0.098752  0.489395  0.608174  0.101685
    H   H14   0.489396  0.901248  0.608174  0.101686
    H   H15   0.901248  0.510604  0.608174  0.101681
    H   H16   0.510605  0.098752  0.608174  0.101681
    C   C33   0.555054  0.006420  0.842381  -0.482208
    C   C34   0.993580  0.555054  0.842381  -0.482205
    C   C35   0.444946  0.993580  0.842381  -0.482194
    C   C36   0.006420  0.444946  0.842381  -0.482202
    C   C37   0.555054  0.993580  0.157619  -0.482204
    C   C38   0.993580  0.444946  0.157619  -0.482196
    C   C39   0.444946  0.006420  0.157619  -0.482196
    C   C40   0.006420  0.555054  0.157619  -0.482211
    C   C41   0.055054  0.506420  0.342381  -0.482194
    C   C42   0.493580  0.055054  0.342381  -0.482191
    C   C43   0.944946  0.493580  0.342381  -0.482179
    C   C44   0.506420  0.944946  0.342381  -0.482184
    C   C45   0.055054  0.493580  0.657619  -0.482193
    C   C46   0.493580  0.944946  0.657619  -0.482177
    C   C47   0.944946  0.506420  0.657619  -0.482184
    C   C48   0.506420  0.055054  0.657619  -0.482190
    H   H17   0.598422  0.013032  0.828727  0.176607
    H   H18   0.986968  0.598422  0.828727  0.176605
    H   H19   0.401578  0.986968  0.828727  0.176600
    H   H20   0.013032  0.401578  0.828727  0.176604
    H   H21   0.598422  0.986968  0.171273  0.176603
    H   H22   0.986968  0.401578  0.171273  0.176600
    H   H23   0.401578  0.013032  0.171273  0.176605
    H   H24   0.013032  0.598422  0.171273  0.176609
    H   H25   0.098422  0.513032  0.328727  0.176601
    H   H26   0.486968  0.098422  0.328727  0.176601
    H   H27   0.901578  0.486968  0.328727  0.176598
    H   H28   0.513032  0.901578  0.328727  0.176600
    H   H29   0.098422  0.486968  0.671273  0.176599
    H   H30   0.486968  0.901578  0.671273  0.176596
    H   H31   0.901578  0.513032  0.671273  0.176601
    H   H32   0.513032  0.098422  0.671273  0.176603
    C   C49   0.500000  0.000000  0.824227  0.807076
    C   C50   0.000000  0.500000  0.824227  0.807080
    C   C51   0.500000  0.000000  0.175773  0.807075
    C   C52   0.000000  0.500000  0.175773  0.807077
    C   C53   0.000000  0.500000  0.324227  0.807049
    C   C54   0.500000  0.000000  0.324227  0.807048
    C   C55   0.000000  0.500000  0.675773  0.807055
    C   C56   0.500000  0.000000  0.675773  0.807044
    C   C57   0.500000  0.000000  0.896187  -0.249803
    C   C58   0.000000  0.500000  0.896187  -0.249787
    C   C59   0.500000  0.000000  0.103813  -0.249793
    C   C60   0.000000  0.500000  0.103813  -0.249790
    C   C61   0.000000  0.500000  0.396187  -0.249784
    C   C62   0.500000  0.000000  0.396187  -0.249789
    C   C63   0.000000  0.500000  0.603813  -0.249786
    C   C64   0.500000  0.000000  0.603813  -0.249784
    C   C65   0.460794  0.039317  0.767905  0.306000
    C   C66   0.960683  0.460794  0.767905  0.306017
    C   C67   0.539206  0.960683  0.767905  0.306023
    C   C68   0.039317  0.539206  0.767905  0.306016
    C   C69   0.460794  0.960683  0.232095  0.306016
    C   C70   0.960683  0.539206  0.232095  0.306024
    C   C71   0.539206  0.039317  0.232095  0.306012
    C   C72   0.039317  0.460794  0.232095  0.306004
    C   C73   0.960794  0.539317  0.267905  0.305962
    C   C74   0.460683  0.960794  0.267905  0.305971
    C   C75   0.039206  0.460683  0.267905  0.305989
    C   C76   0.539317  0.039206  0.267905  0.305977
    C   C77   0.960794  0.460683  0.732095  0.305976
    C   C78   0.460683  0.039206  0.732095  0.305989
    C   C79   0.039206  0.539317  0.732095  0.305980
    C   C80   0.539317  0.960794  0.732095  0.305961
    C   C81   0.500000  0.000000  0.713928  -0.583929
    C   C82   0.000000  0.500000  0.713928  -0.583937
    C   C83   0.500000  0.000000  0.286072  -0.583929
    C   C84   0.000000  0.500000  0.286072  -0.583932
    C   C85   0.000000  0.500000  0.213928  -0.583976
    C   C86   0.500000  0.000000  0.213928  -0.583978
    C   C87   0.000000  0.500000  0.786072  -0.583982
    C   C88   0.500000  0.000000  0.786072  -0.583975
    C   C89   0.717991  0.959704  0.478692  -0.108523
    C   C90   0.040296  0.717991  0.478692  -0.108516
    C   C91   0.282009  0.040296  0.478692  -0.108522
    C   C92   0.959704  0.282009  0.478692  -0.108525
    C   C93   0.717991  0.040296  0.521308  -0.108527
    C   C94   0.040296  0.282009  0.521308  -0.108527
    C   C95   0.282009  0.959704  0.521308  -0.108517
    C   C96   0.959704  0.717991  0.521308  -0.108513
    C   C97   0.217991  0.459704  0.978692  -0.108521
    C   C98   0.540296  0.217991  0.978692  -0.108522
    C   C99   0.782009  0.540296  0.978692  -0.108520
    C   C100  0.459704  0.782009  0.978692  -0.108515
    C   C101  0.217991  0.540296  0.021308  -0.108524
    C   C102  0.540296  0.782009  0.021308  -0.108518
    C   C103  0.782009  0.459704  0.021308  -0.108516
    C   C104  0.459704  0.217991  0.021308  -0.108520
    H   H33   0.693470  0.928184  0.461667  0.117805
    H   H34   0.071816  0.693470  0.461667  0.117805
    H   H35   0.306531  0.071816  0.461667  0.117809
    H   H36   0.928184  0.306530  0.461667  0.117809
    H   H37   0.693470  0.071816  0.538333  0.117809
    H   H38   0.071816  0.306530  0.538333  0.117810
    H   H39   0.306530  0.928184  0.538333  0.117805
    H   H40   0.928184  0.693470  0.538333  0.117804
    H   H41   0.193470  0.428184  0.961667  0.117808
    H   H42   0.571816  0.193470  0.961667  0.117808
    H   H43   0.806530  0.571816  0.961667  0.117809
    H   H44   0.428184  0.806530  0.961667  0.117807
    H   H45   0.193470  0.571816  0.038333  0.117809
    H   H46   0.571816  0.806530  0.038333  0.117808
    H   H47   0.806530  0.428184  0.038333  0.117808
    H   H48   0.428184  0.193470  0.038333  0.117807
    C   C105  0.782073  0.960504  0.478231  -0.093415
    C   C106  0.039496  0.782073  0.478231  -0.093425
    C   C107  0.217927  0.039495  0.478231  -0.093424
    C   C108  0.960505  0.217927  0.478231  -0.093417
    C   C109  0.782073  0.039495  0.521769  -0.093411
    C   C110  0.039496  0.217927  0.521769  -0.093420
    C   C111  0.217927  0.960504  0.521769  -0.093430
    C   C112  0.960505  0.782073  0.521769  -0.093423
    C   C113  0.282073  0.460505  0.978231  -0.093421
    C   C114  0.539495  0.282073  0.978231  -0.093418
    C   C115  0.717927  0.539495  0.978231  -0.093415
    C   C116  0.460505  0.717927  0.978231  -0.093418
    C   C117  0.282073  0.539495  0.021769  -0.093419
    C   C118  0.539495  0.717927  0.021769  -0.093415
    C   C119  0.717927  0.460505  0.021769  -0.093418
    C   C120  0.460505  0.282073  0.021769  -0.093421
    H   H49   0.806603  0.928968  0.461219  0.116117
    H   H50   0.071032  0.806603  0.461219  0.116119
    H   H51   0.193397  0.071032  0.461219  0.116115
    H   H52   0.928968  0.193397  0.461219  0.116113
    H   H53   0.806603  0.071032  0.538781  0.116112
    H   H54   0.071032  0.193397  0.538781  0.116115
    H   H55   0.193397  0.928968  0.538781  0.116121
    H   H56   0.928968  0.806603  0.538781  0.116117
    H   H57   0.306603  0.428968  0.961219  0.116114
    H   H58   0.571032  0.306603  0.961219  0.116113
    H   H59   0.693397  0.571032  0.961219  0.116110
    H   H60   0.428968  0.693397  0.961219  0.116110
    H   H61   0.306603  0.571032  0.038781  0.116113
    H   H62   0.571032  0.693397  0.038781  0.116110
    H   H63   0.693397  0.428968  0.038781  0.116111
    H   H64   0.428968  0.306603  0.038781  0.116113
    C   C121  0.814344  0.000000  0.500000  -0.042795
    C   C122  0.000000  0.814343  0.500000  -0.042781
    C   C123  0.185657  0.000000  0.500000  -0.042758
    C   C124  0.000000  0.185656  0.500000  -0.042772
    C   C125  0.314344  0.500000  0.000000  -0.042769
    C   C126  0.500000  0.314344  0.000000  -0.042771
    C   C127  0.685656  0.500000  0.000000  -0.042768
    C   C128  0.500000  0.685656  0.000000  -0.042768
    C   C129  0.685716  0.000000  0.500000  0.012089
    C   C130  0.000000  0.685716  0.500000  0.012081
    C   C131  0.314284  0.000000  0.500000  0.012077
    C   C132  0.000000  0.314284  0.500000  0.012087
    C   C133  0.185716  0.500000  0.000000  0.012078
    C   C134  0.500000  0.185716  0.000000  0.012074
    C   C135  0.814284  0.500000  0.000000  0.012056
    C   C136  0.500000  0.814284  0.000000  0.012052
    O   O33   0.981207  0.088533  0.471647  -0.604604
    O   O34   0.911467  0.981207  0.471647  -0.604600
    O   O35   0.018793  0.911467  0.471647  -0.604598
    O   O36   0.088533  0.018793  0.471647  -0.604602
    O   O37   0.981207  0.911467  0.528353  -0.604601
    O   O38   0.911467  0.018793  0.528353  -0.604604
    O   O39   0.018793  0.088533  0.528353  -0.604607
    O   O40   0.088533  0.981207  0.528353  -0.604606
    O   O41   0.481207  0.588533  0.971647  -0.604607
    O   O42   0.411467  0.481207  0.971647  -0.604612
    O   O43   0.518793  0.411467  0.971647  -0.604613
    O   O44   0.588533  0.518793  0.971647  -0.604608
    O   O45   0.481207  0.411467  0.028353  -0.604605
    O   O46   0.411467  0.518793  0.028353  -0.604607
    O   O47   0.518793  0.588533  0.028353  -0.604604
    O   O48   0.588533  0.481207  0.028353  -0.604602
    C   C137  0.000000  0.117674  0.500000  0.726449
    C   C138  0.882326  0.000000  0.500000  0.726472
    C   C139  0.000000  0.882326  0.500000  0.726463
    C   C140  0.117674  0.000000  0.500000  0.726440
    C   C141  0.500000  0.617674  0.000000  0.726446
    C   C142  0.382326  0.500000  0.000000  0.726456
    C   C143  0.500000  0.382326  0.000000  0.726456
    C   C144  0.617674  0.500000  0.000000  0.726448
    Cu  Cu9   0.000000  0.000000  0.466292  0.952103
    Cu  Cu10  0.000000  0.000000  0.533708  0.952099
    Cu  Cu11  0.500000  0.500000  0.966292  0.952105
    Cu  Cu12  0.500000  0.500000  0.033708  0.952133
    O   O49   0.423258  0.080215  0.785192  -0.546296
    H   H65   0.380829  0.062994  0.782537  0.379201
    O   O50   0.919785  0.423258  0.785192  -0.546296
    H   H66   0.937006  0.380829  0.782537  0.379198
    O   O51   0.576742  0.919785  0.785192  -0.546297
    H   H67   0.619171  0.937006  0.782537  0.379199
    O   O52   0.080215  0.576742  0.785192  -0.546302
    H   H68   0.062994  0.619171  0.782537  0.379203
    O   O53   0.423258  0.919785  0.214808  -0.546295
    H   H69   0.380829  0.937006  0.217463  0.379198
    O   O54   0.919785  0.576742  0.214808  -0.546299
    H   H70   0.937006  0.619171  0.217463  0.379200
    O   O55   0.576742  0.080215  0.214808  -0.546299
    H   H71   0.619171  0.062994  0.217463  0.379202
    O   O56   0.080215  0.423258  0.214808  -0.546299
    H   H72   0.062994  0.380829  0.217463  0.379202
    O   O57   0.923258  0.580215  0.285192  -0.546286
    H   H73   0.880829  0.562994  0.282537  0.379199
    O   O58   0.419785  0.923258  0.285192  -0.546288
    H   H74   0.437006  0.880829  0.282537  0.379198
    O   O59   0.076742  0.419785  0.285192  -0.546295
    H   H75   0.119171  0.437006  0.282537  0.379201
    O   O60   0.580215  0.076742  0.285192  -0.546293
    H   H76   0.562994  0.119171  0.282537  0.379203
    O   O61   0.923258  0.419785  0.714808  -0.546290
    H   H77   0.880829  0.437006  0.717463  0.379198
    O   O62   0.419785  0.076742  0.714808  -0.546294
    H   H78   0.437006  0.119171  0.717463  0.379201
    O   O63   0.076742  0.580215  0.714808  -0.546296
    H   H79   0.119171  0.562994  0.717463  0.379203
    O   O64   0.580215  0.923258  0.714808  -0.546286
    H   H80   0.562994  0.880829  0.717463  0.379199
