# Generated by REPEAT Assigner based on pymatgen
data_DB0-m2_o1_o3_f0_pcu.sym.11
_audit_creation_date              2022-05-24
_audit_creation_method            REPEAT_Assigner
_cell_length_a                    10.852067
_cell_length_b                    9.400696
_cell_length_c                    19.405899
_cell_angle_alpha                 90.000000
_cell_angle_beta                  89.995061
_cell_angle_gamma                 90.000000
_cell_volume                      1979.731240
_symmetry_space_group_name_H-M    P1
_symmetry_Int_Tables_number       1
loop_
    _symmetry_equiv_pos_site_id
    _symmetry_equiv_pos_as_xyz
    1  x,y,z
loop_
    _atom_site_type_symbol
    _atom_site_label
    _atom_site_fract_x
    _atom_site_fract_y
    _atom_site_fract_z
    _atom_type_partial_charge
    O   O1   0.322010  0.620584  0.502390  -0.584042
    O   O2   0.679871  0.378312  0.496532  -0.574173
    O   O3   0.680147  0.625223  0.502164  -0.589168
    O   O4   0.321292  0.378488  0.496412  -0.603551
    C   C1   0.873617  0.501235  0.499921  0.026803
    C   C2   0.128732  0.498911  0.499932  -0.004682
    C   C3   0.262449  0.499330  0.501413  0.628908
    C   C4   0.737287  0.501758  0.501092  0.596438
    O   O5   0.497291  0.618921  0.399618  -0.546208
    O   O6   0.503977  0.381497  0.599297  -0.548241
    O   O7   0.496969  0.624308  0.599761  -0.519526
    O   O8   0.502848  0.375288  0.398850  -0.513782
    C   C5   0.501520  0.497474  0.366583  0.772142
    C   C6   0.500550  0.502512  0.632454  0.757068
    Cu  Cu1  0.500441  0.642140  0.499158  0.794144
    Cu  Cu2  0.500638  0.357910  0.499962  0.811172
    H   H1   0.361244  0.130601  0.420699  0.116749
    H   H2   0.642401  0.867278  0.571460  0.112361
    H   H3   0.632322  0.127565  0.574066  0.105091
    H   H4   0.369031  0.871476  0.419015  0.130204
    C   C7   0.064566  0.372591  0.497724  -0.095968
    C   C8   0.938023  0.627081  0.501065  -0.128976
    C   C9   0.936889  0.373068  0.498443  -0.119811
    C   C10  0.064630  0.624932  0.500270  -0.091154
    H   H5   0.109914  0.270659  0.497066  0.108773
    H   H6   0.890800  0.728699  0.502958  0.122297
    H   H7   0.885100  0.274412  0.499383  0.109682
    H   H8   0.111578  0.725778  0.501364  0.099999
    C   C11  0.509633  0.373187  0.745560  0.474556
    C   C12  0.490333  0.626878  0.254534  0.485513
    C   C13  0.508711  0.372840  0.254972  0.449272
    C   C14  0.489935  0.625870  0.745806  0.450187
    C   C15  0.509794  0.375261  0.816215  -0.392447
    C   C16  0.490165  0.626518  0.184243  -0.390835
    C   C17  0.510189  0.372463  0.183445  -0.371544
    C   C18  0.491864  0.625831  0.817422  -0.374597
    H   H9   0.518221  0.277050  0.844992  0.164769
    H   H10  0.478777  0.723907  0.155548  0.164698
    H   H11  0.521554  0.269971  0.158592  0.169099
    H   H12  0.481686  0.727172  0.842653  0.166269
    C   C19  0.501642  0.502137  0.852931  0.159485
    C   C20  0.501524  0.498305  0.147961  0.144969
    C   C21  0.419796  0.074511  0.457325  0.029124
    C   C22  0.574189  0.925559  0.541989  0.009926
    C   C23  0.571506  0.071297  0.540799  0.025478
    C   C24  0.422465  0.927559  0.457005  -0.039925
    C   C25  0.500913  0.498654  0.708612  -0.442219
    C   C26  0.500775  0.501724  0.290617  -0.453202
    C   C27  0.561257  0.605303  0.966108  -0.175571
    C   C28  0.440688  0.393928  0.036705  -0.183141
    C   C29  0.562196  0.605662  0.037206  -0.167177
    C   C30  0.440039  0.394472  0.965555  -0.158198
    H   H13  0.611001  0.686384  0.938053  0.124521
    H   H14  0.392430  0.310214  0.063801  0.126312
    H   H15  0.616188  0.686594  0.062835  0.129670
    H   H16  0.388597  0.312855  0.939024  0.123527
    N   N1   0.495876  0.854694  0.501160  -0.026258
    N   N2   0.499426  0.145035  0.499238  -0.068105
    C   C31  0.499753  0.501692  0.072695  0.156276
    C   C32  0.499440  0.500291  0.929230  0.134448
    F   F1   0.521711  0.245794  0.714301  -0.202250
    F   F2   0.480256  0.753409  0.286684  -0.204957
    F   F3   0.520197  0.246932  0.289084  -0.205714
    F   F4   0.480592  0.752992  0.712809  -0.204507
