# Generated by REPEAT Assigner based on pymatgen
data_DB0-m2_o1_o3_f0_pcu.sym.14
_audit_creation_date              2022-05-24
_audit_creation_method            REPEAT_Assigner
_cell_length_a                    10.858295
_cell_length_b                    9.480048
_cell_length_c                    19.299329
_cell_angle_alpha                 90.000000
_cell_angle_beta                  89.995030
_cell_angle_gamma                 90.000000
_cell_volume                      1986.618117
_symmetry_space_group_name_H-M    P1
_symmetry_Int_Tables_number       1
loop_
    _symmetry_equiv_pos_site_id
    _symmetry_equiv_pos_as_xyz
    1  x,y,z
loop_
    _atom_site_type_symbol
    _atom_site_label
    _atom_site_fract_x
    _atom_site_fract_y
    _atom_site_fract_z
    _atom_type_partial_charge
    O   O1   0.321788  0.621072  0.501017  -0.595153
    O   O2   0.678540  0.378431  0.499149  -0.601848
    O   O3   0.679648  0.620821  0.504752  -0.624493
    O   O4   0.320685  0.378555  0.495457  -0.618317
    C   C1   0.872231  0.499342  0.501047  -0.177890
    C   C2   0.128114  0.500021  0.499305  -0.171079
    C   C3   0.263371  0.500025  0.498318  0.784167
    C   C4   0.736979  0.499397  0.501924  0.797696
    O   O5   0.509114  0.621504  0.399956  -0.546540
    O   O6   0.491249  0.377876  0.600252  -0.542438
    O   O7   0.501569  0.620158  0.601239  -0.625782
    O   O8   0.498713  0.379356  0.398967  -0.626104
    C   C5   0.504437  0.501112  0.367092  0.736206
    C   C6   0.495855  0.498349  0.633114  0.731889
    Cu  Cu1  0.500852  0.641120  0.500555  0.820594
    Cu  Cu2  0.499484  0.358332  0.499648  0.815632
    C   C7   0.063697  0.374292  0.497142  -0.005020
    C   C8   0.936636  0.625056  0.503292  -0.002251
    C   C9   0.936741  0.373978  0.497444  -0.040339
    C   C10  0.063589  0.625363  0.502984  -0.042584
    H   H1   0.111236  0.274461  0.495561  0.097779
    H   H2   0.889090  0.724879  0.504955  0.098288
    H   H3   0.889280  0.274167  0.494453  0.102162
    H   H4   0.111049  0.725155  0.506040  0.100684
    C   C11  0.415807  0.411798  0.744793  0.004466
    C   C12  0.584507  0.587799  0.255444  0.004160
    C   C13  0.418774  0.422737  0.255630  0.082898
    C   C14  0.581564  0.576818  0.744579  0.081574
    H   H5   0.349728  0.347762  0.717123  0.063574
    H   H6   0.650480  0.651956  0.283130  0.064190
    H   H7   0.350009  0.363028  0.283330  0.041964
    H   H8   0.650304  0.636557  0.716874  0.042485
    C   C15  0.415642  0.412543  0.816307  -0.027163
    C   C16  0.584787  0.586965  0.183933  -0.028602
    C   C17  0.417588  0.423546  0.184270  -0.078675
    C   C18  0.582752  0.576061  0.815949  -0.076841
    H   H9   0.348641  0.349746  0.843941  0.080903
    H   H10  0.651877  0.649676  0.156316  0.081363
    H   H11  0.349068  0.362350  0.156958  0.090733
    H   H12  0.651226  0.637326  0.843259  0.090361
    C   C19  0.498789  0.495358  0.852222  -0.099925
    C   C20  0.501636  0.504158  0.148011  -0.098449
    C   C21  0.435426  0.071086  0.451768  -0.127131
    C   C22  0.562962  0.928412  0.549156  -0.123780
    C   C23  0.562660  0.074436  0.548110  0.090843
    C   C24  0.435755  0.925037  0.452816  0.094840
    C   C25  0.497089  0.496317  0.708815  -0.133849
    C   C26  0.503263  0.503180  0.291401  -0.134244
    C   C27  0.492261  0.624906  0.963305  -0.163538
    C   C28  0.508046  0.374639  0.036935  -0.164590
    C   C29  0.493535  0.627329  0.035087  -0.167416
    C   C30  0.506810  0.372220  0.965156  -0.166245
    N   N1   0.501206  0.852829  0.500844  0.059367
    N   N2   0.499353  0.146629  0.499186  0.064323
    C   C31  0.501496  0.502174  0.071934  0.241619
    C   C32  0.498899  0.497370  0.928306  0.241750
    N   N3   0.370024  0.139299  0.397502  0.745703
    O   O9   0.252189  0.158564  0.404390  -0.309781
    O   O10  0.416163  0.133994  0.335395  -0.312347
    N   N4   0.628664  0.860210  0.603307  0.746997
    O   O11  0.583200  0.865991  0.665564  -0.313520
    O   O12  0.746320  0.840105  0.596016  -0.310010
    N   N5   0.634373  0.146649  0.598716  0.423677
    O   O13  0.752339  0.157608  0.588740  -0.258701
    O   O14  0.592758  0.154569  0.661802  -0.236267
    N   N6   0.364563  0.852771  0.401997  0.420929
    O   O15  0.406949  0.844746  0.339078  -0.235344
    O   O16  0.246425  0.842449  0.411452  -0.257225
    N   N7   0.471975  0.752387  0.925616  0.706668
    O   O17  0.383205  0.759154  0.880495  -0.370591
    O   O18  0.553314  0.852892  0.927837  -0.309181
    N   N8   0.528148  0.247114  0.074616  0.708038
    O   O19  0.446698  0.146729  0.072365  -0.309983
    O   O20  0.616977  0.240108  0.119691  -0.370657
    N   N9   0.474190  0.757182  0.070945  0.678864
    O   O21  0.554080  0.858670  0.065396  -0.307999
    O   O22  0.386986  0.766836  0.116907  -0.347960
    N   N10  0.526088  0.242348  0.929306  0.677727
    O   O23  0.613236  0.232651  0.883311  -0.347847
    O   O24  0.446071  0.140984  0.934818  -0.307412
