# Generated by REPEAT Assigner based on pymatgen
data_DB0-m2_o1_o3_f0_pcu.sym.16
_audit_creation_date              2022-05-24
_audit_creation_method            REPEAT_Assigner
_cell_length_a                    10.867843
_cell_length_b                    9.485925
_cell_length_c                    19.424442
_cell_angle_alpha                 90.000000
_cell_angle_beta                  89.995058
_cell_angle_gamma                 90.000000
_cell_volume                      2002.495757
_symmetry_space_group_name_H-M    P1
_symmetry_Int_Tables_number       1
loop_
    _symmetry_equiv_pos_site_id
    _symmetry_equiv_pos_as_xyz
    1  x,y,z
loop_
    _atom_site_type_symbol
    _atom_site_label
    _atom_site_fract_x
    _atom_site_fract_y
    _atom_site_fract_z
    _atom_type_partial_charge
    O   O1   0.319122  0.616715  0.501964  -0.482782
    O   O2   0.680157  0.382904  0.497702  -0.483082
    O   O3   0.676682  0.624535  0.502771  -0.467529
    O   O4   0.322600  0.375110  0.496869  -0.461463
    C   C1   0.871715  0.503353  0.499083  0.185114
    C   C2   0.127588  0.496284  0.500358  0.188704
    C   C3   0.262854  0.495274  0.499707  0.339803
    C   C4   0.736429  0.504358  0.499877  0.345672
    O   O5   0.495399  0.620005  0.399921  -0.671479
    O   O6   0.503849  0.379675  0.599739  -0.668549
    O   O7   0.492286  0.620726  0.600026  -0.592730
    O   O8   0.506984  0.378890  0.399646  -0.585957
    C   C5   0.502862  0.499686  0.366798  0.913776
    C   C6   0.496444  0.499929  0.632878  0.914496
    Cu  Cu1  0.497392  0.640955  0.499980  0.926392
    Cu  Cu2  0.501884  0.358692  0.499688  0.908989
    C   C7   0.061252  0.376514  0.484878  -0.257704
    C   C8   0.938080  0.623133  0.514490  -0.257921
    C   C9   0.934423  0.380292  0.483753  -0.109340
    C   C10  0.064898  0.619410  0.515557  -0.110168
    H   H1   0.107308  0.279154  0.472664  0.165505
    H   H2   0.892077  0.720499  0.526673  0.168188
    H   H3   0.885621  0.285735  0.469492  0.092663
    H   H4   0.113709  0.714071  0.529664  0.091816
    C   C11  0.511957  0.375156  0.746782  0.521114
    C   C12  0.486099  0.623710  0.252758  0.520467
    C   C13  0.531435  0.376473  0.253435  0.654078
    C   C14  0.469936  0.623171  0.746415  0.643491
    C   C15  0.512479  0.376948  0.817768  -0.679830
    C   C16  0.485974  0.621621  0.181772  -0.676968
    C   C17  0.530842  0.376852  0.182355  -0.761866
    C   C18  0.470813  0.622453  0.817492  -0.754960
    H   H5   0.529058  0.280556  0.845985  0.182546
    H   H6   0.468216  0.717571  0.153417  0.182031
    H   H7   0.549684  0.280617  0.154447  0.205379
    H   H8   0.453262  0.718869  0.845511  0.203199
    C   C19  0.493291  0.500155  0.853196  0.826110
    C   C20  0.506972  0.498611  0.146502  0.826517
    C   C21  0.423751  0.077505  0.460139  0.390636
    C   C22  0.576905  0.922116  0.538616  0.385411
    C   C23  0.585596  0.067895  0.537478  0.352502
    C   C24  0.415018  0.931669  0.461251  0.350529
    C   C25  0.493027  0.499407  0.709537  -0.633538
    C   C26  0.506542  0.499992  0.290150  -0.639330
    C   C27  0.599006  0.550830  0.962946  0.466862
    C   C28  0.401470  0.447458  0.036774  0.478576
    C   C29  0.602728  0.549612  0.033905  0.474681
    C   C30  0.397726  0.448658  0.965816  0.462877
    N   N1   0.492926  0.852633  0.500166  -0.388511
    N   N2   0.506223  0.147019  0.499570  -0.385356
    C   C31  0.504008  0.497846  0.071184  -0.776508
    C   C32  0.496421  0.500530  0.928522  -0.765101
    N   N3   0.343857  0.153696  0.415527  -0.658556
    H   H9   0.253300  0.130168  0.429041  0.275021
    H   H10  0.358878  0.118299  0.365356  0.295525
    N   N4   0.656719  0.846155  0.583353  -0.657831
    H   H11  0.747265  0.869814  0.569884  0.273015
    H   H12  0.641590  0.881816  0.633464  0.299070
    N   N5   0.687477  0.128981  0.572844  -1.056080
    H   H13  0.755163  0.154560  0.537060  0.421576
    H   H14  0.661715  0.216105  0.601453  0.427180
    N   N6   0.312490  0.870860  0.426346  -1.052220
    H   H15  0.244977  0.846552  0.462460  0.420947
    H   H16  0.337322  0.782708  0.398265  0.423411
    N   N7   0.531461  0.243505  0.713426  -0.408645
    H   H17  0.462043  0.174916  0.729517  0.186717
    H   H18  0.615547  0.203649  0.730670  0.190291
    N   N8   0.464348  0.755034  0.285973  -0.401818
    H   H19  0.532659  0.825061  0.269869  0.184203
    H   H20  0.379647  0.792974  0.268629  0.188391
    N   N9   0.560665  0.247893  0.287541  -0.591917
    H   H21  0.649062  0.218392  0.272178  0.240437
    H   H22  0.499300  0.171315  0.269916  0.226860
    N   N10  0.442355  0.752422  0.712493  -0.580727
    H   H23  0.354412  0.783407  0.727970  0.238596
    H   H24  0.504793  0.827798  0.730167  0.221764
    N   N11  0.703186  0.601744  0.925902  -0.861111
    H   H25  0.676455  0.688895  0.896729  0.320672
    H   H26  0.734080  0.522027  0.893107  0.324764
    N   N12  0.297412  0.396308  0.073844  -0.862667
    H   H27  0.266225  0.476057  0.106534  0.325340
    H   H28  0.324429  0.309443  0.103146  0.319917
    N   N13  0.710499  0.599561  0.067908  -0.873527
    H   H29  0.744503  0.518957  0.099186  0.334682
    H   H30  0.686854  0.685930  0.098438  0.323139
    N   N14  0.289887  0.398764  0.931854  -0.871199
    H   H31  0.313336  0.312118  0.901469  0.323618
    H   H32  0.256010  0.479259  0.900468  0.333712
