# Generated by REPEAT Assigner based on pymatgen
data_DB0-m2_o1_o2_f0_pcu.sym.19
_audit_creation_date              2022-05-24
_audit_creation_method            REPEAT_Assigner
_cell_length_a                    10.764156
_cell_length_b                    9.594264
_cell_length_c                    14.999139
_cell_angle_alpha                 90.000000
_cell_angle_beta                  90.005957
_cell_angle_gamma                 90.000000
_cell_volume                      1549.023326
_symmetry_space_group_name_H-M    P1
_symmetry_Int_Tables_number       1
loop_
    _symmetry_equiv_pos_site_id
    _symmetry_equiv_pos_as_xyz
    1  x,y,z
loop_
    _atom_site_type_symbol
    _atom_site_label
    _atom_site_fract_x
    _atom_site_fract_y
    _atom_site_fract_z
    _atom_type_partial_charge
    O   O1   0.324554  0.614274  0.469747  -0.513225
    O   O2   0.676623  0.387145  0.473043  -0.607275
    O   O3   0.675255  0.613017  0.530413  -0.520544
    O   O4   0.323419  0.387552  0.525989  -0.602476
    N   N1   0.500118  0.846958  0.500114  -0.060208
    N   N2   0.499842  0.152656  0.499520  -0.077856
    C   C1   0.265803  0.503959  0.501678  0.640915
    C   C2   0.734486  0.503291  0.498017  0.645396
    O   O5   0.546575  0.612329  0.374928  -0.594608
    O   O6   0.532814  0.386280  0.626905  -0.519574
    O   O7   0.453424  0.612468  0.625105  -0.594470
    O   O8   0.467271  0.386331  0.372436  -0.520525
    C   C3   0.513876  0.497343  0.332063  0.598819
    C   C4   0.487720  0.496998  0.667975  0.606724
    Cu  Cu1  0.499936  0.636067  0.500018  0.818373
    Cu  Cu2  0.500051  0.363666  0.499579  0.869884
    C   C5   0.419219  0.074883  0.446661  0.060848
    C   C6   0.568326  0.924323  0.561669  0.029539
    C   C7   0.580027  0.074378  0.553536  0.052608
    C   C8   0.430887  0.925041  0.438922  0.022706
    C   C9   0.063792  0.381654  0.504500  -0.090196
    C   C10  0.936021  0.629949  0.500351  -0.094405
    C   C11  0.936455  0.381789  0.497476  -0.092491
    C   C12  0.064562  0.629464  0.499773  -0.067066
    C   C13  0.543666  0.616878  0.095237  -0.126605
    C   C14  0.530625  0.382128  0.904053  -0.115888
    C   C15  0.457138  0.616614  0.905042  -0.133350
    C   C16  0.469570  0.382939  0.096310  -0.104589
    H   H1   0.573161  0.708969  0.059853  0.111460
    H   H2   0.565101  0.290774  0.938061  0.110520
    H   H3   0.427932  0.709384  0.940375  0.113799
    H   H4   0.435686  0.291243  0.062249  0.108546
    C   C17  0.549551  0.616083  0.187195  -0.107133
    C   C18  0.524653  0.380461  0.812329  -0.129796
    C   C19  0.450785  0.614417  0.813012  -0.096868
    C   C20  0.474514  0.382065  0.187969  -0.145276
    H   H5   0.582331  0.708497  0.221030  0.113723
    H   H6   0.552199  0.287682  0.777105  0.118794
    H   H7   0.419112  0.706221  0.778189  0.109479
    H   H8   0.446390  0.288003  0.221973  0.123307
    C   C21  0.513984  0.498429  0.234220  0.001441
    C   C22  0.485893  0.497089  0.766021  -0.015973
    H   H9   0.110198  0.282973  0.509323  0.106054
    H   H10  0.888659  0.728996  0.500890  0.101559
    H   H11  0.888733  0.283322  0.493074  0.105028
    H   H12  0.115169  0.727032  0.500247  0.093435
    C   C23  0.503478  0.500335  0.049135  0.062046
    C   C24  0.497420  0.500331  0.951196  0.071222
    C   C25  0.870997  0.505008  0.497728  -0.030940
    C   C26  0.129195  0.505516  0.502200  -0.043286
    C   C27  0.304489  0.136537  0.396913  0.416422
    F   F1   0.281519  0.273264  0.398782  -0.079267
    F   F2   0.200107  0.078363  0.435183  -0.132479
    F   F3   0.306118  0.114834  0.306161  -0.154567
    C   C28  0.630109  0.861690  0.647283  0.524394
    F   F4   0.627221  0.724301  0.662726  -0.091641
    F   F5   0.570590  0.918533  0.720531  -0.178745
    F   F6   0.756427  0.884189  0.652053  -0.199521
    C   C29  0.695243  0.136301  0.602586  0.423708
    F   F7   0.717855  0.273682  0.599989  -0.081842
    F   F8   0.801232  0.077570  0.565771  -0.136260
    F   F9   0.691865  0.115447  0.693558  -0.156707
    C   C30  0.369739  0.862878  0.353108  0.531232
    F   F10  0.372671  0.726005  0.337186  -0.091349
    F   F11  0.429892  0.919074  0.279916  -0.181629
    F   F12  0.243221  0.883830  0.348478  -0.203354
