# Generated by REPEAT Assigner based on pymatgen
data_DB0-m2_o1_o2_f0_pcu.sym.31
_audit_creation_date              2022-05-24
_audit_creation_method            REPEAT_Assigner
_cell_length_a                    11.018995
_cell_length_b                    9.454913
_cell_length_c                    15.245558
_cell_angle_alpha                 90.000000
_cell_angle_beta                  90.006000
_cell_angle_gamma                 90.000000
_cell_volume                      1588.337587
_symmetry_space_group_name_H-M    P1
_symmetry_Int_Tables_number       1
loop_
    _symmetry_equiv_pos_site_id
    _symmetry_equiv_pos_as_xyz
    1  x,y,z
loop_
    _atom_site_type_symbol
    _atom_site_label
    _atom_site_fract_x
    _atom_site_fract_y
    _atom_site_fract_z
    _atom_type_partial_charge
    O   O1   0.322172  0.619075  0.486634  -0.504930
    O   O2   0.674421  0.376759  0.506773  -0.491942
    O   O3   0.674283  0.618279  0.502866  -0.521231
    O   O4   0.321998  0.377488  0.495439  -0.505973
    N   N1   0.497940  0.851275  0.498161  0.045296
    N   N2   0.499684  0.144559  0.498154  -0.202840
    C   C1   0.263050  0.498253  0.490010  0.642267
    C   C2   0.732941  0.497742  0.506718  0.606155
    O   O5   0.505243  0.619291  0.370293  -0.623566
    O   O6   0.494216  0.376928  0.625552  -0.559147
    O   O7   0.482256  0.618238  0.624583  -0.596903
    O   O8   0.510459  0.377183  0.370661  -0.585740
    C   C3   0.514120  0.498664  0.328364  0.607878
    C   C4   0.482124  0.497837  0.667175  0.567774
    Cu  Cu1  0.498632  0.639151  0.497664  0.815619
    Cu  Cu2  0.496690  0.356635  0.498164  0.921549
    H   H1   0.378906  0.128042  0.391595  0.072103
    H   H2   0.623796  0.867629  0.601617  0.086187
    H   H3   0.624238  0.126655  0.601988  0.081308
    H   H4   0.371943  0.869023  0.395686  0.143653
    C   C5   0.431796  0.071719  0.439809  0.201135
    C   C6   0.569104  0.923969  0.554384  -0.082783
    C   C7   0.568678  0.071073  0.554941  0.169880
    C   C8   0.429484  0.924974  0.441059  -0.182361
    C   C9   0.060471  0.373310  0.491487  0.047872
    C   C10  0.935604  0.623365  0.508076  -0.092025
    C   C11  0.935380  0.372552  0.498557  -0.022511
    C   C12  0.060715  0.623781  0.501342  0.036026
    C   C13  0.479049  0.619254  0.093605  -0.140344
    C   C14  0.458442  0.377279  0.903628  -0.101439
    C   C15  0.513841  0.618919  0.902118  -0.134505
    C   C16  0.534539  0.377673  0.091250  -0.118954
    H   H5   0.453041  0.716363  0.061732  0.127183
    H   H6   0.432372  0.282578  0.938480  0.117134
    H   H7   0.539674  0.715871  0.934368  0.124704
    H   H8   0.560305  0.283612  0.055676  0.118620
    C   C17  0.495490  0.623309  0.183095  -0.095288
    C   C18  0.450933  0.377058  0.812973  -0.133101
    C   C19  0.499670  0.622611  0.812454  -0.098526
    C   C20  0.544741  0.377805  0.181841  -0.108652
    C   C21  0.520990  0.500119  0.230183  -0.041377
    C   C22  0.474830  0.499740  0.765078  -0.013202
    C   C23  0.499399  0.497213  0.046210  0.076546
    C   C24  0.492101  0.497189  0.949230  0.062755
    C   C25  0.869271  0.497727  0.505916  -0.146008
    C   C26  0.126818  0.498771  0.492857  -0.229904
    C   C27  0.496236  0.764024  0.222547  0.794099
    O   O9   0.405508  0.837488  0.218847  -0.565410
    N   N3   0.608772  0.823566  0.251090  -0.740146
    H   H9   0.600998  0.852238  0.316875  0.380131
    H   H10  0.675731  0.745931  0.245795  0.280649
    C   C28  0.405328  0.248267  0.771349  0.642043
    O   O10  0.319156  0.254218  0.721286  -0.502826
    N   N4   0.458781  0.114937  0.791301  -0.611651
    H   H11  0.492032  0.075788  0.732164  0.262043
    H   H12  0.533861  0.131890  0.831693  0.261797
    C   C29  0.500697  0.762974  0.772874  0.759246
    O   O11  0.592510  0.834815  0.775623  -0.552477
    N   N5   0.388390  0.824136  0.745391  -0.707205
    H   H13  0.395334  0.851500  0.679368  0.376173
    H   H14  0.321064  0.747083  0.751627  0.279430
    C   C30  0.592458  0.249588  0.222848  0.645043
    O   O12  0.680569  0.256215  0.271043  -0.513016
    N   N6   0.537654  0.116128  0.205263  -0.611689
    H   H15  0.505361  0.078968  0.265162  0.270777
    H   H16  0.462187  0.132883  0.165248  0.264497
    C   C31  0.118198  0.235875  0.479550  0.484998
    O   O13  0.153746  0.201336  0.406960  -0.505397
    N   N7   0.131003  0.141436  0.552063  -0.408002
    H   H17  0.223549  0.122541  0.560880  0.237521
    H   H18  0.099315  0.193393  0.607985  0.233133
    C   C32  0.879650  0.760944  0.525001  0.835033
    O   O14  0.835261  0.828758  0.465006  -0.601655
    N   N8   0.887842  0.821399  0.610532  -0.755139
    H   H19  0.844087  0.919039  0.608758  0.387415
    H   H20  0.839824  0.756041  0.653461  0.257199
    C   C33  0.878143  0.233206  0.501461  0.531351
    O   O15  0.845372  0.185101  0.571670  -0.530853
    N   N9   0.867321  0.150169  0.423780  -0.472194
    H   H21  0.775706  0.125119  0.416163  0.289298
    H   H22  0.893701  0.213308  0.370933  0.242133
    C   C34  0.117645  0.763105  0.499027  0.673475
    O   O16  0.171831  0.808543  0.562851  -0.572652
    N   N10  0.107288  0.846669  0.421671  -0.676573
    H   H23  0.162690  0.934805  0.429892  0.346161
    H   H24  0.142547  0.786936  0.370047  0.254847
