# Generated by REPEAT Assigner based on pymatgen
data_DB0-m2_o1_o2_f0_pcu.sym.7_sqe
_audit_creation_date              2022-05-24
_audit_creation_method            REPEAT_Assigner
_cell_length_a                    11.052714
_cell_length_b                    9.374507
_cell_length_c                    15.036143
_cell_angle_alpha                 90.000000
_cell_angle_beta                  90.006102
_cell_angle_gamma                 90.000000
_cell_volume                      1557.951132
_symmetry_space_group_name_H-M    P1
_symmetry_Int_Tables_number       1
loop_
    _symmetry_equiv_pos_site_id
    _symmetry_equiv_pos_as_xyz
    1  x,y,z
loop_
    _atom_site_type_symbol
    _atom_site_label
    _atom_site_fract_x
    _atom_site_fract_y
    _atom_site_fract_z
    _atom_type_partial_charge
    O   O1   0.327360  0.616114  0.524515  -0.431413
    O   O2   0.672594  0.383388  0.524800  -0.417866
    O   O3   0.672546  0.615642  0.475404  -0.417037
    O   O4   0.327448  0.383508  0.475510  -0.431349
    N   N1   0.500108  0.852403  0.499983  0.091147
    N   N2   0.499537  0.146912  0.500781  0.093490
    C   C1   0.267729  0.499836  0.499977  0.629593
    C   C2   0.732323  0.499535  0.500091  0.593762
    O   O5   0.466774  0.616589  0.373165  -0.469981
    O   O6   0.466681  0.382886  0.626974  -0.469956
    O   O7   0.533358  0.616941  0.626890  -0.467449
    O   O8   0.533339  0.382194  0.373268  -0.468263
    C   C3   0.499296  0.499163  0.331325  0.391739
    C   C4   0.499265  0.500130  0.668829  0.394125
    Cu  Cu1  0.500133  0.638634  0.500082  0.616471
    Cu  Cu2  0.500051  0.360678  0.500218  0.618196
    H   H1   0.500063  0.128116  0.360570  0.089538
    H   H2   0.501045  0.869764  0.640318  0.088967
    H   H3   0.501698  0.127697  0.640883  0.093530
    H   H4   0.501354  0.872761  0.360109  0.091213
    C   C5   0.501360  0.073798  0.423651  -0.014467
    C   C6   0.501901  0.925261  0.577342  -0.012923
    C   C7   0.500915  0.072860  0.577828  -0.023640
    C   C8   0.500780  0.926652  0.423184  -0.016289
    C   C9   0.064167  0.370970  0.501772  -0.027230
    C   C10  0.936144  0.628452  0.502891  -0.080886
    C   C11  0.936667  0.370867  0.496544  -0.071105
    C   C12  0.063623  0.628693  0.497616  -0.020634
    C   C13  0.464153  0.619345  0.095480  -0.107138
    C   C14  0.463956  0.379901  0.904381  -0.106610
    C   C15  0.535879  0.619811  0.904539  -0.103327
    C   C16  0.535818  0.379575  0.095271  -0.104114
    H   H5   0.432377  0.713541  0.061504  0.103907
    H   H6   0.432097  0.286045  0.938573  0.104291
    H   H7   0.566018  0.713827  0.939937  0.103559
    H   H8   0.565977  0.285316  0.060043  0.103373
    C   C17  0.463607  0.619069  0.187224  -0.203157
    C   C18  0.463443  0.380057  0.812784  -0.201307
    C   C19  0.535862  0.619926  0.812868  -0.208173
    C   C20  0.535792  0.379461  0.187094  -0.209315
    H   H9   0.432364  0.713158  0.221891  0.140867
    H   H10  0.432167  0.286154  0.777818  0.139869
    H   H11  0.563562  0.715598  0.778571  0.142836
    H   H12  0.563462  0.283517  0.221035  0.143004
    C   C21  0.499764  0.499213  0.233743  0.178662
    C   C22  0.499772  0.500015  0.766458  0.174945
    C   C23  0.500249  0.499682  0.048714  0.062628
    C   C24  0.500216  0.499646  0.950924  0.062318
    C   C25  0.870303  0.499616  0.499883  -0.070142
    C   C26  0.129960  0.499859  0.499792  -0.128663
    C   C27  0.129272  0.230655  0.514771  0.162568
    C   C28  0.170812  0.167371  0.426341  -0.249871
    H   H13  0.103999  0.090162  0.400570  0.036749
    H   H14  0.183223  0.252172  0.375699  0.037280
    H   H15  0.256458  0.108687  0.436791  0.048206
    H   H16  0.205059  0.242549  0.562166  -0.063769
    H   H17  0.074361  0.150774  0.549427  0.035839
    C   C29  0.870632  0.768582  0.515255  0.172523
    C   C30  0.829620  0.830322  0.426209  -0.254603
    H   H18  0.894067  0.910764  0.400593  0.037483
    H   H19  0.820021  0.744824  0.375722  0.040324
    H   H20  0.741673  0.883918  0.435630  0.047266
    H   H21  0.793993  0.756971  0.561938  -0.061864
    H   H22  0.924698  0.848069  0.550955  0.034019
    C   C31  0.871383  0.230101  0.484221  0.147049
    C   C32  0.830630  0.168935  0.573385  -0.261971
    H   H23  0.897767  0.093480  0.600845  0.041690
    H   H24  0.817569  0.255792  0.622468  0.042236
    H   H25  0.745055  0.109978  0.563867  0.051314
    H   H26  0.794628  0.241355  0.437454  -0.055509
    H   H27  0.926104  0.150315  0.449176  0.042305
    C   C33  0.128484  0.769538  0.484505  0.149404
    C   C34  0.170041  0.832170  0.573038  -0.260409
    H   H28  0.101118  0.905200  0.600335  0.041614
    H   H29  0.184777  0.746152  0.622401  0.039774
    H   H30  0.253793  0.894965  0.562849  0.051912
    H   H31  0.204153  0.757613  0.436831  -0.059893
    H   H32  0.072918  0.850004  0.450713  0.038739
