# Generated by REPEAT Assigner based on pymatgen
data_DB0-m2_o1_o3_f0_nbo.sym.59
_audit_creation_date              2022-05-24
_audit_creation_method            REPEAT_Assigner
_cell_length_a                    21.455436
_cell_length_b                    21.455436
_cell_length_c                    38.492964
_cell_angle_alpha                 90.000000
_cell_angle_beta                  90.000000
_cell_angle_gamma                 90.000000
_cell_volume                      17719.685990
_symmetry_space_group_name_H-M    P1
_symmetry_Int_Tables_number       1
loop_
    _symmetry_equiv_pos_site_id
    _symmetry_equiv_pos_as_xyz
    1  x,y,z
loop_
    _atom_site_type_symbol
    _atom_site_label
    _atom_site_fract_x
    _atom_site_fract_y
    _atom_site_fract_z
    _atom_type_partial_charge
    O   O1    0.589928  0.048495  0.515925  -0.548733
    O   O2    0.951505  0.589927  0.515925  -0.548768
    O   O3    0.410072  0.951505  0.515925  -0.548736
    O   O4    0.048495  0.410072  0.515925  -0.548731
    O   O5    0.587226  0.946270  0.495520  -0.545728
    O   O6    0.946270  0.412774  0.495520  -0.545753
    O   O7    0.412774  0.053730  0.495520  -0.545754
    O   O8    0.053730  0.587226  0.495520  -0.545761
    O   O9    0.089928  0.548495  0.015925  -0.548638
    O   O10   0.451505  0.089928  0.015925  -0.548734
    O   O11   0.910072  0.451505  0.015925  -0.548715
    O   O12   0.548495  0.910072  0.015925  -0.548708
    O   O13   0.087226  0.446270  0.995520  -0.545711
    O   O14   0.446270  0.912774  0.995520  -0.545749
    O   O15   0.912774  0.553730  0.995520  -0.545664
    O   O16   0.553730  0.087226  0.995520  -0.545764
    C   C1    0.617653  0.996308  0.506221  0.515919
    C   C2    0.003692  0.617653  0.506221  0.516055
    C   C3    0.382347  0.003692  0.506221  0.515988
    C   C4    0.996308  0.382347  0.506221  0.515999
    C   C5    0.117653  0.496308  0.006221  0.515829
    C   C6    0.503692  0.117653  0.006221  0.516012
    C   C7    0.882347  0.503692  0.006221  0.515951
    C   C8    0.496308  0.882347  0.006221  0.515923
    O   O17   0.483182  0.051573  0.555160  -0.587313
    O   O18   0.948427  0.483182  0.555160  -0.587317
    O   O19   0.516818  0.948427  0.555160  -0.587341
    O   O20   0.051573  0.516818  0.555160  -0.587319
    O   O21   0.480368  0.949383  0.456149  -0.590632
    O   O22   0.949383  0.519632  0.456149  -0.590607
    O   O23   0.519632  0.050616  0.456149  -0.590603
    O   O24   0.050617  0.480368  0.456149  -0.590600
    O   O25   0.983182  0.551573  0.055160  -0.587274
    O   O26   0.448427  0.983182  0.055160  -0.587314
    O   O27   0.016818  0.448427  0.055160  -0.587308
    O   O28   0.551573  0.016818  0.055160  -0.587305
    O   O29   0.980368  0.449384  0.956149  -0.590582
    O   O30   0.449383  0.019632  0.956149  -0.590609
    O   O31   0.019632  0.550617  0.956149  -0.590514
    O   O32   0.550617  0.980368  0.956149  -0.590587
    C   C9    0.500000  0.000000  0.571509  0.767938
    C   C10   0.000000  0.500000  0.571509  0.767914
    C   C11   0.500000  0.000000  0.439828  0.776844
    C   C12   0.000000  0.500000  0.439828  0.776824
    C   C13   0.000000  0.500000  0.071509  0.767901
    C   C14   0.500000  0.000000  0.071509  0.767871
    C   C15   0.000000  0.500000  0.939828  0.776770
    C   C16   0.500000  0.000000  0.939828  0.776806
    Cu  Cu1   0.501672  0.060701  0.505660  0.928207
    Cu  Cu2   0.939298  0.501672  0.505660  0.928276
    Cu  Cu3   0.498328  0.939298  0.505660  0.928248
    Cu  Cu4   0.060701  0.498328  0.505660  0.928254
    Cu  Cu5   0.001672  0.560702  0.005660  0.928186
    Cu  Cu6   0.439298  0.001672  0.005659  0.928259
    Cu  Cu7   0.998328  0.439299  0.005659  0.928234
    Cu  Cu8   0.560701  0.998328  0.005660  0.928250
    C   C17   0.527355  0.951166  0.883845  0.458379
    C   C18   0.048834  0.527355  0.883845  0.458335
    C   C19   0.472645  0.048834  0.883845  0.458418
    C   C20   0.951166  0.472645  0.883845  0.458420
    C   C21   0.532554  0.045573  0.127492  0.448960
    C   C22   0.045573  0.467446  0.127492  0.448816
    C   C23   0.467446  0.954427  0.127492  0.448868
    C   C24   0.954427  0.532554  0.127492  0.448981
    C   C25   0.027355  0.451166  0.383845  0.458406
    C   C26   0.548834  0.027355  0.383845  0.458376
    C   C27   0.972645  0.548834  0.383845  0.458407
    C   C28   0.451166  0.972645  0.383845  0.458441
    C   C29   0.032554  0.545573  0.627492  0.449220
    C   C30   0.545573  0.967446  0.627492  0.449464
    C   C31   0.967446  0.454427  0.627492  0.449073
    C   C32   0.454427  0.032554  0.627492  0.449008
    C   C33   0.529167  0.952668  0.847827  -0.337201
    C   C34   0.047332  0.529167  0.847827  -0.337184
    C   C35   0.470833  0.047332  0.847827  -0.337284
    C   C36   0.952668  0.470833  0.847827  -0.337292
    C   C37   0.533512  0.044496  0.163480  -0.338040
    C   C38   0.044495  0.466488  0.163480  -0.337877
    C   C39   0.466488  0.955505  0.163480  -0.337934
    C   C40   0.955505  0.533512  0.163480  -0.338079
    C   C41   0.029167  0.452668  0.347827  -0.337226
    C   C42   0.547332  0.029167  0.347827  -0.337179
    C   C43   0.970833  0.547332  0.347827  -0.337240
    C   C44   0.452668  0.970833  0.347827  -0.337286
    C   C45   0.033512  0.544495  0.663480  -0.338238
    C   C46   0.544495  0.966488  0.663480  -0.338549
    C   C47   0.966488  0.455505  0.663480  -0.338042
    C   C48   0.455505  0.033512  0.663480  -0.338011
    H   H1    0.553611  0.917291  0.833379  0.114638
    H   H2    0.082709  0.553611  0.833379  0.114636
    H   H3    0.446389  0.082709  0.833379  0.114674
    H   H4    0.917291  0.446389  0.833379  0.114676
    H   H5    0.558364  0.079105  0.178392  0.113487
    H   H6    0.079105  0.441636  0.178392  0.113450
    H   H7    0.441636  0.920896  0.178392  0.113480
    H   H8    0.920895  0.558364  0.178392  0.113499
    H   H9    0.053611  0.417291  0.333379  0.114673
    H   H10   0.582709  0.053611  0.333379  0.114628
    H   H11   0.946389  0.582709  0.333379  0.114673
    H   H12   0.417291  0.946389  0.333379  0.114678
    H   H13   0.058364  0.579105  0.678392  0.113487
    H   H14   0.579105  0.941636  0.678392  0.113593
    H   H15   0.941636  0.420896  0.678393  0.113513
    H   H16   0.420896  0.058364  0.678393  0.113495
    C   C49   0.500000  0.000000  0.829697  0.034968
    C   C50   0.000000  0.500000  0.829697  0.034979
    C   C51   0.500000  0.000000  0.181289  0.040309
    C   C52   0.000000  0.500000  0.181289  0.040307
    C   C53   0.000000  0.500000  0.329697  0.034878
    C   C54   0.500000  0.000000  0.329697  0.034880
    C   C55   0.000000  0.500000  0.681289  0.040144
    C   C56   0.500000  0.000000  0.681289  0.040301
    C   C57   0.500000  0.000000  0.901744  -0.499658
    C   C58   0.000000  0.500000  0.901744  -0.499641
    C   C59   0.500000  0.000000  0.109624  -0.501043
    C   C60   0.000000  0.500000  0.109624  -0.501040
    C   C61   0.000000  0.500000  0.401744  -0.499669
    C   C62   0.500000  0.000000  0.401744  -0.499678
    C   C63   0.000000  0.500000  0.609624  -0.501237
    C   C64   0.500000  0.000000  0.609624  -0.501317
    C   C65   0.502653  0.055538  0.773031  -0.176205
    C   C66   0.944462  0.502653  0.773031  -0.176246
    C   C67   0.497347  0.944462  0.773031  -0.176061
    C   C68   0.055537  0.497347  0.773031  -0.176194
    C   C69   0.444520  0.001607  0.237234  -0.176178
    C   C70   0.001607  0.555480  0.237234  -0.176637
    C   C71   0.555480  0.998393  0.237234  -0.176469
    C   C72   0.998393  0.444520  0.237234  -0.175978
    C   C73   0.002653  0.555538  0.273031  -0.176325
    C   C74   0.444462  0.002653  0.273031  -0.176659
    C   C75   0.997347  0.444462  0.273031  -0.176762
    C   C76   0.555537  0.997347  0.273031  -0.176417
    C   C77   0.944520  0.501608  0.737234  -0.176891
    C   C78   0.501608  0.055480  0.737234  -0.176855
    C   C79   0.055480  0.498393  0.737234  -0.176907
    C   C80   0.498393  0.944520  0.737234  -0.177101
    H   H17   0.506782  0.099700  0.786290  0.122386
    H   H18   0.900299  0.506782  0.786290  0.122397
    H   H19   0.493219  0.900300  0.786290  0.122344
    H   H20   0.099700  0.493219  0.786290  0.122365
    H   H21   0.400806  0.003895  0.223334  0.119810
    H   H22   0.003895  0.599194  0.223334  0.119978
    H   H23   0.599194  0.996105  0.223334  0.119913
    H   H24   0.996105  0.400806  0.223334  0.119741
    H   H25   0.006782  0.599700  0.286290  0.122362
    H   H26   0.400299  0.006782  0.286290  0.122450
    H   H27   0.993218  0.400300  0.286290  0.122467
    H   H28   0.599700  0.993218  0.286290  0.122381
    H   H29   0.900806  0.503895  0.723334  0.119960
    H   H30   0.503895  0.099194  0.723334  0.119940
    H   H31   0.099194  0.496105  0.723334  0.119992
    H   H32   0.496105  0.900806  0.723334  0.120059
    C   C81   0.500000  0.000000  0.719239  0.203247
    C   C82   0.000000  0.500000  0.719239  0.203271
    C   C83   0.500000  0.000000  0.291353  0.180331
    C   C84   0.000000  0.500000  0.291353  0.180305
    C   C85   0.000000  0.500000  0.219239  0.202403
    C   C86   0.500000  0.000000  0.219239  0.202412
    C   C87   0.000000  0.500000  0.791353  0.179997
    C   C88   0.500000  0.000000  0.791353  0.179949
    C   C89   0.718552  0.956373  0.485234  -0.057605
    C   C90   0.043627  0.718552  0.485234  -0.057552
    C   C91   0.281447  0.043627  0.485234  -0.057583
    C   C92   0.956373  0.281447  0.485234  -0.057589
    C   C93   0.716866  0.029737  0.531853  -0.111546
    C   C94   0.029737  0.283134  0.531853  -0.111594
    C   C95   0.283134  0.970263  0.531853  -0.111609
    C   C96   0.970263  0.716866  0.531853  -0.111547
    C   C97   0.218552  0.456373  0.985234  -0.057639
    C   C98   0.543627  0.218553  0.985234  -0.057567
    C   C99   0.781447  0.543627  0.985234  -0.057537
    C   C100  0.456373  0.781448  0.985234  -0.057672
    C   C101  0.216866  0.529737  0.031853  -0.111577
    C   C102  0.529737  0.783134  0.031853  -0.111632
    C   C103  0.783134  0.470263  0.031853  -0.111548
    C   C104  0.470263  0.216866  0.031853  -0.111580
    H   H33   0.694532  0.928326  0.466145  0.065218
    H   H34   0.071674  0.694532  0.466145  0.065211
    H   H35   0.305468  0.071674  0.466145  0.065209
    H   H36   0.928326  0.305468  0.466145  0.065211
    H   H37   0.691536  0.058832  0.549899  0.083894
    H   H38   0.058832  0.308464  0.549899  0.083907
    H   H39   0.308464  0.941168  0.549899  0.083914
    H   H40   0.941168  0.691536  0.549899  0.083905
    H   H41   0.194532  0.428326  0.966145  0.065218
    H   H42   0.571674  0.194532  0.966145  0.065213
    H   H43   0.805468  0.571674  0.966145  0.065187
    H   H44   0.428326  0.805468  0.966145  0.065222
    H   H45   0.191536  0.558832  0.049899  0.083888
    H   H46   0.558832  0.808464  0.049899  0.083913
    H   H47   0.808464  0.441168  0.049899  0.083899
    H   H48   0.441168  0.191536  0.049899  0.083909
    C   C105  0.782777  0.956245  0.486058  0.013780
    C   C106  0.043755  0.782777  0.486058  0.013641
    C   C107  0.217222  0.043755  0.486058  0.013760
    C   C108  0.956245  0.217222  0.486058  0.013770
    C   C109  0.780903  0.028064  0.533470  -0.049558
    C   C110  0.028064  0.219096  0.533470  -0.049535
    C   C111  0.219097  0.971936  0.533470  -0.049535
    C   C112  0.971936  0.780903  0.533470  -0.049663
    C   C113  0.282777  0.456245  0.986058  0.013805
    C   C114  0.543755  0.282778  0.986058  0.013704
    C   C115  0.717222  0.543755  0.986058  0.013653
    C   C116  0.456245  0.717223  0.986058  0.013849
    C   C117  0.280903  0.528064  0.033470  -0.049520
    C   C118  0.528064  0.719097  0.033470  -0.049511
    C   C119  0.719097  0.471936  0.033470  -0.049660
    C   C120  0.471936  0.280903  0.033470  -0.049597
    H   H49   0.808026  0.927606  0.467757  0.040896
    H   H50   0.072394  0.808026  0.467757  0.040928
    H   H51   0.191974  0.072394  0.467757  0.040905
    H   H52   0.927606  0.191974  0.467757  0.040910
    H   H53   0.804556  0.056877  0.552341  0.086953
    H   H54   0.056877  0.195444  0.552341  0.086951
    H   H55   0.195444  0.943123  0.552341  0.086949
    H   H56   0.943123  0.804556  0.552341  0.086973
    H   H57   0.308026  0.427606  0.967757  0.040888
    H   H58   0.572394  0.308026  0.967757  0.040904
    H   H59   0.691974  0.572394  0.967757  0.040928
    H   H60   0.427606  0.691974  0.967757  0.040881
    H   H61   0.304556  0.556877  0.052341  0.086937
    H   H62   0.556877  0.695444  0.052341  0.086951
    H   H63   0.695444  0.443123  0.052341  0.086976
    H   H64   0.443123  0.304556  0.052341  0.086964
    C   C121  0.814149  0.992096  0.510211  -0.082406
    C   C122  0.007904  0.814149  0.510211  -0.082060
    C   C123  0.185851  0.007904  0.510211  -0.082352
    C   C124  0.992096  0.185851  0.510211  -0.082374
    C   C125  0.314149  0.492096  0.010211  -0.082417
    C   C126  0.507904  0.314149  0.010211  -0.082167
    C   C127  0.685851  0.507904  0.010211  -0.082078
    C   C128  0.492096  0.685851  0.010211  -0.082424
    C   C129  0.685535  0.993917  0.507768  0.180405
    C   C130  0.006083  0.685534  0.507768  0.180321
    C   C131  0.314465  0.006083  0.507768  0.180375
    C   C132  0.993917  0.314465  0.507768  0.180370
    C   C133  0.185534  0.493917  0.007768  0.180507
    C   C134  0.506083  0.185535  0.007768  0.180334
    C   C135  0.814465  0.506083  0.007768  0.180359
    C   C136  0.493917  0.814465  0.007768  0.180450
    O   O33   0.976621  0.087664  0.482149  -0.545702
    O   O34   0.912335  0.976621  0.482149  -0.545684
    O   O35   0.023378  0.912335  0.482149  -0.545632
    O   O36   0.087665  0.023378  0.482149  -0.545675
    O   O37   0.986067  0.910371  0.538945  -0.580200
    O   O38   0.910371  0.013933  0.538945  -0.580268
    O   O39   0.013933  0.089628  0.538945  -0.580248
    O   O40   0.089628  0.986066  0.538945  -0.580258
    O   O41   0.476622  0.587665  0.982149  -0.545687
    O   O42   0.412335  0.476622  0.982149  -0.545662
    O   O43   0.523378  0.412335  0.982149  -0.545589
    O   O44   0.587665  0.523378  0.982149  -0.545607
    O   O45   0.486067  0.410372  0.038945  -0.580199
    O   O46   0.410371  0.513933  0.038945  -0.580248
    O   O47   0.513933  0.589629  0.038945  -0.580260
    O   O48   0.589628  0.486067  0.038945  -0.580188
    C   C137  0.993747  0.117794  0.510551  0.661707
    C   C138  0.882205  0.993747  0.510551  0.661752
    C   C139  0.006253  0.882205  0.510551  0.661416
    C   C140  0.117794  0.006253  0.510551  0.661701
    C   C141  0.493747  0.617795  0.010551  0.661792
    C   C142  0.382205  0.493747  0.010551  0.661768
    C   C143  0.506253  0.382205  0.010551  0.661501
    C   C144  0.617794  0.506253  0.010551  0.661450
    Cu  Cu9   0.000000  0.000000  0.476803  0.852849
    Cu  Cu10  0.000000  0.000000  0.544304  0.898745
    Cu  Cu11  0.500000  0.500000  0.976803  0.852931
    Cu  Cu12  0.500000  0.500000  0.044304  0.898835
    O   O49   0.550050  0.902124  0.901966  -0.224189
    C   C145  0.576645  0.850533  0.886896  0.097627
    C   C146  0.591623  0.803415  0.914034  0.053628
    C   C147  0.569090  0.743311  0.911124  -0.221864
    C   C148  0.585266  0.698993  0.935398  -0.066055
    C   C149  0.623428  0.714677  0.962787  -0.026008
    C   C150  0.645325  0.774806  0.966020  -0.180988
    C   C151  0.629637  0.819123  0.941588  -0.093500
    H   H65   0.620379  0.864124  0.873520  0.028771
    H   H66   0.543680  0.829598  0.868036  0.028866
    H   H67   0.539333  0.730240  0.889676  0.126547
    H   H68   0.567816  0.651926  0.933032  0.082999
    H   H69   0.635473  0.679851  0.981895  0.080756
    H   H70   0.674945  0.787166  0.987661  0.112435
    H   H71   0.647493  0.866035  0.943995  0.116342
    O   O50   0.097876  0.550050  0.901966  -0.224147
    C   C152  0.149467  0.576646  0.886896  0.097612
    C   C153  0.196585  0.591624  0.914034  0.053613
    C   C154  0.256689  0.569090  0.911124  -0.221827
    C   C155  0.301007  0.585266  0.935398  -0.066192
    C   C156  0.285323  0.623428  0.962787  -0.025817
    C   C157  0.225194  0.645325  0.966020  -0.180922
    C   C158  0.180877  0.629637  0.941588  -0.093607
    H   H72   0.135876  0.620379  0.873520  0.028777
    H   H73   0.170402  0.543680  0.868036  0.028862
    H   H74   0.269760  0.539333  0.889676  0.126550
    H   H75   0.348073  0.567816  0.933031  0.083033
    H   H76   0.320149  0.635473  0.981895  0.080665
    H   H77   0.212834  0.674945  0.987660  0.112403
    H   H78   0.133965  0.647494  0.943995  0.116382
    O   O51   0.449950  0.097876  0.901966  -0.224238
    C   C159  0.423355  0.149467  0.886896  0.097866
    C   C160  0.408377  0.196586  0.914034  0.053432
    C   C161  0.430910  0.256690  0.911124  -0.221804
    C   C162  0.414734  0.301007  0.935398  -0.066042
    C   C163  0.376572  0.285323  0.962787  -0.025989
    C   C164  0.354675  0.225194  0.966020  -0.181022
    C   C165  0.370363  0.180877  0.941588  -0.093412
    H   H79   0.379621  0.135877  0.873519  0.028726
    H   H80   0.456320  0.170402  0.868036  0.028804
    H   H81   0.460667  0.269760  0.889676  0.126538
    H   H82   0.432184  0.348074  0.933031  0.082986
    H   H83   0.364527  0.320149  0.981895  0.080748
    H   H84   0.325055  0.212834  0.987660  0.112443
    H   H85   0.352507  0.133965  0.943995  0.116318
    O   O52   0.902123  0.449950  0.901966  -0.224236
    C   C166  0.850533  0.423355  0.886896  0.097854
    C   C167  0.803414  0.408377  0.914034  0.053452
    C   C168  0.743310  0.430910  0.911124  -0.221805
    C   C169  0.698993  0.414734  0.935398  -0.066055
    C   C170  0.714677  0.376572  0.962787  -0.026035
    C   C171  0.774806  0.354675  0.966020  -0.181021
    C   C172  0.819123  0.370363  0.941588  -0.093406
    H   H86   0.864123  0.379621  0.873520  0.028724
    H   H87   0.829598  0.456320  0.868036  0.028801
    H   H88   0.730240  0.460667  0.889676  0.126539
    H   H89   0.651926  0.432184  0.933032  0.082990
    H   H90   0.679851  0.364527  0.981895  0.080796
    H   H91   0.787166  0.325055  0.987660  0.112449
    H   H92   0.866035  0.352507  0.943995  0.116312
    O   O53   0.561211  0.091007  0.109209  -0.193258
    C   C173  0.594257  0.139313  0.123543  0.047170
    C   C174  0.619304  0.178955  0.095069  0.061577
    C   C175  0.656966  0.152555  0.070028  -0.094764
    C   C176  0.680888  0.188784  0.043661  -0.131984
    C   C177  0.667527  0.251530  0.042407  -0.103301
    C   C178  0.629621  0.277990  0.067257  -0.082183
    C   C179  0.605244  0.241725  0.093518  -0.181068
    H   H93   0.633965  0.120671  0.138796  0.037388
    H   H94   0.563375  0.167472  0.140487  0.040944
    H   H95   0.667968  0.103424  0.071062  0.108633
    H   H96   0.710368  0.168042  0.024048  0.102403
    H   H97   0.686588  0.279863  0.021841  0.096628
    H   H98   0.618867  0.327172  0.066082  0.098650
    H   H99   0.575516  0.262944  0.112851  0.111582
    O   O54   0.091006  0.438789  0.109209  -0.193182
    C   C180  0.139313  0.405743  0.123543  0.047116
    C   C181  0.178955  0.380696  0.095069  0.061661
    C   C182  0.152555  0.343034  0.070028  -0.094790
    C   C183  0.188783  0.319112  0.043660  -0.131993
    C   C184  0.251530  0.332473  0.042407  -0.103357
    C   C185  0.277990  0.370378  0.067257  -0.082131
    C   C186  0.241724  0.394755  0.093518  -0.181138
    H   H100  0.120671  0.366035  0.138796  0.037387
    H   H101  0.167472  0.436624  0.140486  0.040939
    H   H102  0.103423  0.332032  0.071061  0.108635
    H   H103  0.168042  0.289632  0.024048  0.102417
    H   H104  0.279862  0.313412  0.021841  0.096670
    H   H105  0.327172  0.381132  0.066082  0.098627
    H   H106  0.262944  0.424484  0.112850  0.111603
    O   O55   0.438789  0.908994  0.109209  -0.193231
    C   C187  0.405743  0.860687  0.123543  0.047175
    C   C188  0.380696  0.821045  0.095069  0.061632
    C   C189  0.343034  0.847445  0.070028  -0.094772
    C   C190  0.319112  0.811216  0.043661  -0.132011
    C   C191  0.332473  0.748470  0.042407  -0.103271
    C   C192  0.370378  0.722010  0.067257  -0.082169
    C   C193  0.394755  0.758276  0.093518  -0.181110
    H   H107  0.366035  0.879329  0.138796  0.037375
    H   H108  0.436624  0.832528  0.140487  0.040920
    H   H109  0.332032  0.896577  0.071061  0.108634
    H   H110  0.289632  0.831958  0.024048  0.102406
    H   H111  0.313412  0.720137  0.021841  0.096630
    H   H112  0.381132  0.672828  0.066082  0.098642
    H   H113  0.424484  0.737056  0.112850  0.111598
    O   O56   0.908994  0.561211  0.109209  -0.193259
    C   C194  0.860687  0.594257  0.123543  0.047179
    C   C195  0.821045  0.619304  0.095069  0.061544
    C   C196  0.847445  0.656966  0.070028  -0.094722
    C   C197  0.811216  0.680888  0.043661  -0.132049
    C   C198  0.748470  0.667527  0.042407  -0.103265
    C   C199  0.722009  0.629621  0.067257  -0.082263
    C   C200  0.758275  0.605244  0.093518  -0.181017
    H   H114  0.879329  0.633965  0.138796  0.037381
    H   H115  0.832528  0.563375  0.140487  0.040942
    H   H116  0.896576  0.667968  0.071062  0.108641
    H   H117  0.831957  0.710368  0.024048  0.102417
    H   H118  0.720137  0.686588  0.021841  0.096647
    H   H119  0.672828  0.618867  0.066082  0.098678
    H   H120  0.737056  0.575516  0.112851  0.111574
    O   O57   0.050050  0.402123  0.401966  -0.224236
    C   C201  0.076645  0.350533  0.386896  0.097840
    C   C202  0.091623  0.303414  0.414034  0.053479
    C   C203  0.069090  0.243310  0.411124  -0.221817
    C   C204  0.085266  0.198993  0.435398  -0.066072
    C   C205  0.123428  0.214677  0.462787  -0.025953
    C   C206  0.145325  0.274806  0.466020  -0.181034
    C   C207  0.129637  0.319123  0.441588  -0.093427
    H   H121  0.120379  0.364123  0.373520  0.028724
    H   H122  0.043680  0.329598  0.368036  0.028804
    H   H123  0.039333  0.230240  0.389676  0.126541
    H   H124  0.067816  0.151926  0.433032  0.083001
    H   H125  0.135473  0.179851  0.481895  0.080721
    H   H126  0.174945  0.287166  0.487661  0.112443
    H   H127  0.147493  0.366035  0.443995  0.116325
    O   O58   0.597876  0.050050  0.401966  -0.224180
    C   C208  0.649467  0.076645  0.386896  0.097624
    C   C209  0.696585  0.091623  0.414034  0.053615
    C   C210  0.756689  0.069090  0.411124  -0.221858
    C   C211  0.801007  0.085266  0.435398  -0.066046
    C   C212  0.785323  0.123427  0.462787  -0.025968
    C   C213  0.725194  0.145325  0.466020  -0.181026
    C   C214  0.680877  0.129637  0.441588  -0.093493
    H   H128  0.635876  0.120379  0.373520  0.028772
    H   H129  0.670402  0.043680  0.368036  0.028868
    H   H130  0.769760  0.039333  0.389676  0.126543
    H   H131  0.848073  0.067816  0.433032  0.082993
    H   H132  0.820149  0.135473  0.481895  0.080724
    H   H133  0.712833  0.174944  0.487661  0.112448
    H   H134  0.633965  0.147493  0.443995  0.116349
    O   O59   0.949950  0.597876  0.401966  -0.224225
    C   C215  0.923355  0.649467  0.386896  0.097815
    C   C216  0.908377  0.696585  0.414034  0.053457
    C   C217  0.930910  0.756689  0.411124  -0.221798
    C   C218  0.914734  0.801007  0.435398  -0.066076
    C   C219  0.876572  0.785322  0.462787  -0.025960
    C   C220  0.854675  0.725194  0.466020  -0.181048
    C   C221  0.870363  0.680876  0.441588  -0.093412
    H   H135  0.879621  0.635876  0.373520  0.028738
    H   H136  0.956320  0.670402  0.368036  0.028815
    H   H137  0.960667  0.769760  0.389676  0.126536
    H   H138  0.932184  0.848073  0.433032  0.083001
    H   H139  0.864527  0.820149  0.481895  0.080741
    H   H140  0.825055  0.712833  0.487661  0.112446
    H   H141  0.852507  0.633965  0.443995  0.116328
    O   O60   0.402124  0.949950  0.401966  -0.224238
    C   C222  0.350533  0.923355  0.386896  0.097843
    C   C223  0.303415  0.908376  0.414034  0.053462
    C   C224  0.243310  0.930910  0.411124  -0.221817
    C   C225  0.198993  0.914734  0.435398  -0.066049
    C   C226  0.214677  0.876572  0.462787  -0.025991
    C   C227  0.274806  0.854675  0.466020  -0.181022
    C   C228  0.319123  0.870363  0.441588  -0.093409
    H   H142  0.364123  0.879621  0.373520  0.028730
    H   H143  0.329598  0.956320  0.368036  0.028810
    H   H144  0.230240  0.960667  0.389676  0.126541
    H   H145  0.151926  0.932184  0.433032  0.082989
    H   H146  0.179851  0.864526  0.481895  0.080748
    H   H147  0.287167  0.825055  0.487661  0.112437
    H   H148  0.366035  0.852507  0.443995  0.116318
    O   O61   0.061211  0.591006  0.609209  -0.193307
    C   C229  0.094257  0.639312  0.623543  0.047194
    C   C230  0.119304  0.678955  0.595069  0.061516
    C   C231  0.156967  0.652554  0.570028  -0.094723
    C   C232  0.180889  0.688782  0.543660  -0.132028
    C   C233  0.167528  0.751529  0.542407  -0.103299
    C   C234  0.129622  0.777990  0.567257  -0.082225
    C   C235  0.105245  0.741724  0.593517  -0.180999
    H   H149  0.133965  0.620670  0.638796  0.037396
    H   H150  0.063376  0.667472  0.640486  0.040948
    H   H151  0.167968  0.603423  0.571062  0.108626
    H   H152  0.210368  0.668041  0.524048  0.102422
    H   H153  0.186589  0.779861  0.521840  0.096656
    H   H154  0.118868  0.827171  0.566081  0.098667
    H   H155  0.075516  0.762944  0.612850  0.111556
    O   O62   0.591006  0.938788  0.609209  -0.193350
    C   C236  0.639312  0.905742  0.623543  0.047157
    C   C237  0.678955  0.880695  0.595069  0.061569
    C   C238  0.652554  0.843033  0.570028  -0.094723
    C   C239  0.688783  0.819111  0.543660  -0.132029
    C   C240  0.751529  0.832472  0.542407  -0.103333
    C   C241  0.777990  0.870378  0.567257  -0.082134
    C   C242  0.741724  0.894755  0.593517  -0.181065
    H   H156  0.620670  0.866035  0.638796  0.037399
    H   H157  0.667472  0.936624  0.640486  0.040942
    H   H158  0.603423  0.832032  0.571062  0.108621
    H   H159  0.668041  0.789631  0.524048  0.102422
    H   H160  0.779861  0.813411  0.521840  0.096660
    H   H161  0.827171  0.881132  0.566081  0.098626
    H   H162  0.762944  0.924483  0.612850  0.111575
    O   O63   0.938789  0.408994  0.609209  -0.193267
    C   C243  0.905742  0.360687  0.623543  0.047114
    C   C244  0.880696  0.321045  0.595069  0.061724
    C   C245  0.843034  0.347445  0.570028  -0.094810
    C   C246  0.819112  0.311216  0.543661  -0.131995
    C   C247  0.832473  0.248470  0.542407  -0.103341
    C   C248  0.870378  0.222010  0.567257  -0.082140
    C   C249  0.894755  0.258276  0.593518  -0.181138
    H   H163  0.866035  0.379329  0.638796  0.037383
    H   H164  0.936624  0.332528  0.640487  0.040903
    H   H165  0.832032  0.396577  0.571061  0.108642
    H   H166  0.789632  0.331958  0.524048  0.102409
    H   H167  0.813412  0.220137  0.521841  0.096670
    H   H168  0.881132  0.172828  0.566082  0.098632
    H   H169  0.924484  0.237056  0.612851  0.111604
    O   O64   0.408994  0.061211  0.609209  -0.193240
    C   C250  0.360687  0.094257  0.623543  0.047123
    C   C251  0.321045  0.119304  0.595069  0.061711
    C   C252  0.347445  0.156966  0.570028  -0.094817
    C   C253  0.311217  0.180888  0.543661  -0.131985
    C   C254  0.248470  0.167527  0.542407  -0.103350
    C   C255  0.222010  0.129622  0.567257  -0.082139
    C   C256  0.258276  0.105245  0.593518  -0.181133
    H   H170  0.379329  0.133965  0.638796  0.037374
    H   H171  0.332528  0.063376  0.640487  0.040912
    H   H172  0.396577  0.167968  0.571061  0.108646
    H   H173  0.331958  0.210368  0.524048  0.102409
    H   H174  0.220138  0.186588  0.521841  0.096673
    H   H175  0.172828  0.118867  0.566082  0.098631
    H   H176  0.237056  0.075516  0.612851  0.111601
