# Generated by REPEAT Assigner based on pymatgen
data_DB0-m2_o1_o3_f0_nbo.sym.10_sqe
_audit_creation_date              2022-05-24
_audit_creation_method            REPEAT_Assigner
_cell_length_a                    21.497376
_cell_length_b                    21.497376
_cell_length_c                    38.404554
_cell_angle_alpha                 90.000000
_cell_angle_beta                  90.000000
_cell_angle_gamma                 90.000000
_cell_volume                      17748.172455
_symmetry_space_group_name_H-M    P1
_symmetry_Int_Tables_number       1
loop_
    _symmetry_equiv_pos_site_id
    _symmetry_equiv_pos_as_xyz
    1  x,y,z
loop_
    _atom_site_type_symbol
    _atom_site_label
    _atom_site_fract_x
    _atom_site_fract_y
    _atom_site_fract_z
    _atom_type_partial_charge
    O   O1    0.588421  0.051000  0.510294  -0.603873
    O   O2    0.949000  0.588421  0.510294  -0.603849
    O   O3    0.411579  0.949000  0.510294  -0.603867
    O   O4    0.051000  0.411579  0.510294  -0.603885
    O   O5    0.588420  0.948998  0.489706  -0.603841
    O   O6    0.948998  0.411580  0.489706  -0.603873
    O   O7    0.411580  0.051002  0.489706  -0.603886
    O   O8    0.051002  0.588420  0.489706  -0.603873
    O   O9    0.088421  0.551000  0.010294  -0.603901
    O   O10   0.449000  0.088421  0.010294  -0.603904
    O   O11   0.911579  0.449000  0.010294  -0.603895
    O   O12   0.551001  0.911579  0.010294  -0.603870
    O   O13   0.088420  0.448998  0.989706  -0.603903
    O   O14   0.448998  0.911580  0.989706  -0.603866
    O   O15   0.911580  0.551002  0.989706  -0.603895
    O   O16   0.551002  0.088420  0.989706  -0.603890
    C   C1    0.617531  0.999999  0.500000  0.547446
    C   C2    0.000001  0.617531  0.500000  0.547456
    C   C3    0.382469  0.000001  0.500000  0.547497
    C   C4    0.999999  0.382469  0.500000  0.547509
    C   C5    0.117532  0.499999  0.000000  0.547546
    C   C6    0.500001  0.117532  0.000000  0.547509
    C   C7    0.882469  0.500001  0.000000  0.547593
    C   C8    0.499999  0.882469  0.000000  0.547534
    O   O17   0.481647  0.051053  0.549604  -0.668108
    O   O18   0.948947  0.481647  0.549605  -0.668057
    O   O19   0.518353  0.948947  0.549604  -0.668076
    O   O20   0.051053  0.518353  0.549605  -0.668078
    O   O21   0.481646  0.948948  0.450395  -0.668082
    O   O22   0.948948  0.518354  0.450396  -0.668074
    O   O23   0.518354  0.051052  0.450396  -0.668156
    O   O24   0.051052  0.481646  0.450396  -0.668109
    O   O25   0.981648  0.551053  0.049605  -0.668077
    O   O26   0.448947  0.981647  0.049604  -0.668107
    O   O27   0.018353  0.448947  0.049605  -0.668093
    O   O28   0.551053  0.018353  0.049604  -0.668134
    O   O29   0.981646  0.448948  0.950396  -0.668101
    O   O30   0.448948  0.018354  0.950396  -0.668108
    O   O31   0.018354  0.551052  0.950396  -0.668106
    O   O32   0.551053  0.981647  0.950395  -0.668112
    C   C9    0.500000  0.000000  0.565809  1.169247
    C   C10   0.000000  0.500000  0.565809  1.169238
    C   C11   0.500000  0.000000  0.434191  1.169159
    C   C12   0.000000  0.500000  0.434191  1.169167
    C   C13   0.000000  0.500000  0.065809  1.169282
    C   C14   0.500000  0.000000  0.065809  1.169276
    C   C15   0.000000  0.500000  0.934191  1.169236
    C   C16   0.500000  0.000000  0.934191  1.169101
    Cu  Cu1   0.500001  0.060611  0.500000  0.985576
    Cu  Cu2   0.939389  0.500001  0.500000  0.985525
    Cu  Cu3   0.499999  0.939389  0.500000  0.985525
    Cu  Cu4   0.060611  0.499999  0.500000  0.985538
    Cu  Cu5   0.000001  0.560611  0.000000  0.985585
    Cu  Cu6   0.439389  0.000001  0.000000  0.985556
    Cu  Cu7   0.000000  0.439389  0.000000  0.985488
    Cu  Cu8   0.560611  0.000000  0.000000  0.985545
    C   C17   0.491826  0.945121  0.878392  0.374143
    C   C18   0.054880  0.491829  0.878392  0.374329
    C   C19   0.508175  0.054880  0.878392  0.374112
    C   C20   0.945120  0.508172  0.878392  0.374346
    C   C21   0.491805  0.054876  0.121608  0.375160
    C   C22   0.054876  0.508198  0.121608  0.376105
    C   C23   0.508196  0.945124  0.121608  0.374611
    C   C24   0.945124  0.491802  0.121608  0.376141
    C   C25   0.991827  0.445120  0.378392  0.374248
    C   C26   0.554879  0.991825  0.378392  0.374165
    C   C27   0.008173  0.554880  0.378392  0.374258
    C   C28   0.445121  0.008175  0.378392  0.374153
    C   C29   0.991801  0.554876  0.621608  0.376054
    C   C30   0.554876  0.008196  0.621608  0.375959
    C   C31   0.008199  0.445124  0.621608  0.376068
    C   C32   0.445124  0.991804  0.621608  0.376047
    C   C33   0.491514  0.944992  0.842491  0.265293
    C   C34   0.055009  0.491517  0.842492  0.265485
    C   C35   0.508487  0.055008  0.842491  0.265299
    C   C36   0.944992  0.508484  0.842492  0.265447
    C   C37   0.491493  0.055005  0.157508  0.264346
    C   C38   0.055005  0.508509  0.157509  0.263328
    C   C39   0.508507  0.944995  0.157508  0.265106
    C   C40   0.944996  0.491491  0.157508  0.263306
    C   C41   0.991515  0.444992  0.342492  0.265360
    C   C42   0.555008  0.991513  0.342491  0.265281
    C   C43   0.008485  0.555008  0.342492  0.265376
    C   C44   0.444992  0.008487  0.342491  0.265262
    C   C45   0.991489  0.555004  0.657508  0.263402
    C   C46   0.555005  0.008508  0.657508  0.263404
    C   C47   0.008511  0.444996  0.657508  0.263375
    C   C48   0.444995  0.991492  0.657508  0.263370
    C   C49   0.500000  0.000000  0.824307  -0.502985
    C   C50   0.000000  0.500000  0.824307  -0.503371
    C   C51   0.500000  0.000000  0.175693  -0.502677
    C   C52   0.000000  0.500000  0.175693  -0.501334
    C   C53   0.000000  0.500000  0.324307  -0.503167
    C   C54   0.500000  0.000000  0.324307  -0.502967
    C   C55   0.000000  0.500000  0.675693  -0.501423
    C   C56   0.500000  0.000000  0.675693  -0.501375
    C   C57   0.500000  0.000000  0.896287  -0.678511
    C   C58   0.000000  0.500000  0.896287  -0.678956
    C   C59   0.500000  0.000000  0.103713  -0.679247
    C   C60   0.000000  0.500000  0.103713  -0.680263
    C   C61   0.000000  0.500000  0.396287  -0.678779
    C   C62   0.500000  0.000000  0.396287  -0.678586
    C   C63   0.000000  0.500000  0.603713  -0.680205
    C   C64   0.500000  0.000000  0.603713  -0.680139
    C   C65   0.460628  0.039039  0.767939  -0.307360
    C   C66   0.960963  0.460626  0.767939  -0.307365
    C   C67   0.539372  0.960961  0.767939  -0.307367
    C   C68   0.039037  0.539374  0.767939  -0.307391
    C   C69   0.460642  0.960947  0.232061  -0.307966
    C   C70   0.960946  0.539357  0.232061  -0.308216
    C   C71   0.539358  0.039053  0.232061  -0.308158
    C   C72   0.039054  0.460643  0.232061  -0.308185
    C   C73   0.960627  0.539038  0.267939  -0.307331
    C   C74   0.460961  0.960628  0.267939  -0.307470
    C   C75   0.039373  0.460962  0.267939  -0.307356
    C   C76   0.539039  0.039372  0.267939  -0.307398
    C   C77   0.960644  0.460945  0.732061  -0.308184
    C   C78   0.460947  0.039358  0.732061  -0.308153
    C   C79   0.039356  0.539056  0.732061  -0.308201
    C   C80   0.539053  0.960642  0.732061  -0.308134
    H   H1    0.428877  0.069251  0.781706  0.162546
    H   H2    0.930753  0.428873  0.781706  0.162579
    H   H3    0.571123  0.930749  0.781706  0.162555
    H   H4    0.069248  0.571127  0.781706  0.162584
    H   H5    0.428902  0.930723  0.218294  0.162592
    H   H6    0.930721  0.571096  0.218294  0.162673
    H   H7    0.571099  0.069277  0.218294  0.162674
    H   H8    0.069279  0.428904  0.218294  0.162656
    H   H9    0.928875  0.569249  0.281706  0.162556
    H   H10   0.430748  0.928878  0.281706  0.162573
    H   H11   0.071125  0.430751  0.281706  0.162558
    H   H12   0.569252  0.071123  0.281706  0.162562
    H   H13   0.928906  0.430719  0.718294  0.162656
    H   H14   0.430723  0.071098  0.718294  0.162656
    H   H15   0.071094  0.569281  0.718294  0.162671
    H   H16   0.569278  0.928902  0.718294  0.162641
    C   C81   0.500000  0.000000  0.713899  0.568238
    C   C82   0.000000  0.500000  0.713899  0.568316
    C   C83   0.500000  0.000000  0.286100  0.567538
    C   C84   0.000000  0.500000  0.286101  0.567512
    C   C85   0.000000  0.500000  0.213899  0.568289
    C   C86   0.500000  0.000000  0.213899  0.568299
    C   C87   0.000000  0.500000  0.786101  0.567559
    C   C88   0.500000  0.000000  0.786100  0.567494
    C   C89   0.717787  0.961022  0.477863  -0.158221
    C   C90   0.038978  0.717787  0.477863  -0.158122
    C   C91   0.282213  0.038978  0.477863  -0.158175
    C   C92   0.961022  0.282213  0.477863  -0.158193
    C   C93   0.717787  0.038975  0.522137  -0.158063
    C   C94   0.038975  0.282213  0.522137  -0.158061
    C   C95   0.282213  0.961025  0.522137  -0.158083
    C   C96   0.961025  0.717787  0.522137  -0.158053
    C   C97   0.217788  0.461022  0.977863  -0.158127
    C   C98   0.538978  0.217788  0.977863  -0.158171
    C   C99   0.782213  0.538978  0.977863  -0.158120
    C   C100  0.461022  0.782213  0.977863  -0.158182
    C   C101  0.217788  0.538975  0.022137  -0.158034
    C   C102  0.538975  0.782213  0.022137  -0.158146
    C   C103  0.782213  0.461025  0.022137  -0.158061
    C   C104  0.461025  0.217788  0.022137  -0.158094
    H   H17   0.693227  0.930599  0.460175  0.143682
    H   H18   0.069401  0.693227  0.460175  0.143636
    H   H19   0.306773  0.069401  0.460175  0.143671
    H   H20   0.930599  0.306773  0.460175  0.143682
    H   H21   0.693227  0.069399  0.539825  0.143642
    H   H22   0.069398  0.306773  0.539825  0.143645
    H   H23   0.306773  0.930602  0.539825  0.143655
    H   H24   0.930602  0.693227  0.539825  0.143637
    H   H25   0.193227  0.430599  0.960175  0.143646
    H   H26   0.569401  0.193227  0.960175  0.143660
    H   H27   0.806773  0.569401  0.960175  0.143651
    H   H28   0.430599  0.806773  0.960175  0.143668
    H   H29   0.193227  0.569398  0.039825  0.143634
    H   H30   0.569399  0.806773  0.039825  0.143657
    H   H31   0.806773  0.430602  0.039825  0.143652
    H   H32   0.430602  0.193227  0.039825  0.143660
    C   C105  0.781897  0.961804  0.477435  -0.104556
    C   C106  0.038196  0.781897  0.477435  -0.104590
    C   C107  0.218103  0.038196  0.477435  -0.104569
    C   C108  0.961804  0.218103  0.477435  -0.104566
    C   C109  0.781897  0.038194  0.522565  -0.104615
    C   C110  0.038193  0.218103  0.522565  -0.104608
    C   C111  0.218103  0.961806  0.522565  -0.104612
    C   C112  0.961807  0.781897  0.522565  -0.104619
    C   C113  0.281897  0.461804  0.977435  -0.104598
    C   C114  0.538196  0.281897  0.977435  -0.104565
    C   C115  0.718103  0.538196  0.977435  -0.104590
    C   C116  0.461804  0.718103  0.977435  -0.104534
    C   C117  0.281897  0.538194  0.022565  -0.104635
    C   C118  0.538194  0.718103  0.022565  -0.104526
    C   C119  0.718103  0.461807  0.022565  -0.104616
    C   C120  0.461807  0.281897  0.022565  -0.104608
    H   H33   0.806391  0.931293  0.459770  0.120245
    H   H34   0.068708  0.806392  0.459770  0.120245
    H   H35   0.193608  0.068707  0.459770  0.120240
    H   H36   0.931292  0.193609  0.459770  0.120240
    H   H37   0.806391  0.068705  0.540230  0.120238
    H   H38   0.068705  0.193609  0.540230  0.120232
    H   H39   0.193609  0.931295  0.540230  0.120238
    H   H40   0.931295  0.806391  0.540230  0.120237
    H   H41   0.306392  0.431293  0.959770  0.120246
    H   H42   0.568708  0.306392  0.959770  0.120243
    H   H43   0.693609  0.568708  0.959770  0.120237
    H   H44   0.431293  0.693609  0.959770  0.120236
    H   H45   0.306392  0.568705  0.040230  0.120240
    H   H46   0.568705  0.693609  0.040230  0.120215
    H   H47   0.693609  0.431295  0.040230  0.120231
    H   H48   0.431295  0.306392  0.040230  0.120228
    C   C121  0.814200  0.999999  0.500000  -0.038237
    C   C122  0.000001  0.814200  0.500000  -0.038238
    C   C123  0.185800  0.000001  0.500000  -0.038227
    C   C124  0.999999  0.185800  0.500000  -0.038226
    C   C125  0.314200  0.499999  0.000000  -0.038186
    C   C126  0.500001  0.314200  0.000000  -0.038221
    C   C127  0.685800  0.500001  0.000000  -0.038195
    C   C128  0.499999  0.685800  0.000000  -0.038341
    C   C129  0.685520  0.999999  0.500000  0.158211
    C   C130  0.000001  0.685520  0.500000  0.158177
    C   C131  0.314480  0.000001  0.500000  0.158184
    C   C132  0.999998  0.314480  0.500000  0.158176
    C   C133  0.185520  0.499999  0.000000  0.158129
    C   C134  0.500002  0.185520  0.000000  0.158193
    C   C135  0.814481  0.500002  0.000000  0.158103
    C   C136  0.499999  0.814481  0.000000  0.158196
    O   O33   0.981297  0.088597  0.471547  -0.601189
    O   O34   0.911403  0.981297  0.471547  -0.601183
    O   O35   0.018703  0.911403  0.471547  -0.601184
    O   O36   0.088597  0.018703  0.471547  -0.601193
    O   O37   0.981298  0.911403  0.528453  -0.601181
    O   O38   0.911403  0.018702  0.528453  -0.601183
    O   O39   0.018702  0.088597  0.528453  -0.601194
    O   O40   0.088597  0.981298  0.528453  -0.601189
    O   O41   0.481297  0.588597  0.971547  -0.601227
    O   O42   0.411403  0.481297  0.971547  -0.601193
    O   O43   0.518703  0.411403  0.971547  -0.601196
    O   O44   0.588597  0.518703  0.971547  -0.601192
    O   O45   0.481298  0.411403  0.028453  -0.601164
    O   O46   0.411403  0.518702  0.028453  -0.601211
    O   O47   0.518702  0.588597  0.028453  -0.601178
    O   O48   0.588597  0.481298  0.028453  -0.601188
    C   C137  0.999999  0.117765  0.500000  0.721942
    C   C138  0.882235  0.999999  0.500000  0.721949
    C   C139  0.000001  0.882235  0.500000  0.721959
    C   C140  0.117765  0.000001  0.500000  0.721938
    C   C141  0.499999  0.617765  0.000000  0.722048
    C   C142  0.382236  0.499999  0.000000  0.721933
    C   C143  0.500001  0.382236  0.000000  0.721936
    C   C144  0.617765  0.500001  0.000000  0.721910
    Cu  Cu9   0.000000  0.000000  0.466180  0.947426
    Cu  Cu10  0.000000  0.000000  0.533819  0.947428
    Cu  Cu11  0.500000  0.500000  0.966180  0.947474
    Cu  Cu12  0.500000  0.500000  0.033819  0.947419
    O   O49   0.482539  0.890949  0.896270  -0.497581
    H   H49   0.524780  0.873574  0.899585  0.325800
    O   O50   0.109053  0.482545  0.896270  -0.497615
    H   H50   0.126425  0.524787  0.899585  0.325797
    O   O51   0.517461  0.109052  0.896270  -0.497563
    H   H51   0.475221  0.126426  0.899585  0.325803
    O   O52   0.890948  0.517455  0.896270  -0.497617
    H   H52   0.873575  0.475214  0.899585  0.325802
    O   O53   0.482499  0.109045  0.103730  -0.497800
    H   H53   0.524733  0.126434  0.100413  0.325782
    O   O54   0.109044  0.517506  0.103730  -0.497880
    H   H54   0.126435  0.475272  0.100413  0.325757
    O   O55   0.517502  0.890955  0.103730  -0.497703
    H   H55   0.475268  0.873566  0.100413  0.325783
    O   O56   0.890956  0.482494  0.103730  -0.497909
    H   H56   0.873565  0.524728  0.100413  0.325765
    O   O57   0.982542  0.390948  0.396270  -0.497600
    H   H57   0.024783  0.373575  0.399585  0.325806
    O   O58   0.609051  0.982538  0.396270  -0.497611
    H   H58   0.626426  0.024778  0.399585  0.325850
    O   O59   0.017458  0.609052  0.396270  -0.497552
    H   H59   0.975217  0.626425  0.399585  0.325772
    O   O60   0.390949  0.017462  0.396270  -0.497555
    H   H60   0.373574  0.975222  0.399585  0.325783
    O   O61   0.982491  0.609044  0.603730  -0.497857
    H   H61   0.024725  0.626435  0.600413  0.325745
    O   O62   0.609045  0.017503  0.603730  -0.497820
    H   H62   0.626434  0.975269  0.600413  0.325745
    O   O63   0.017509  0.390956  0.603730  -0.497852
    H   H63   0.975275  0.373565  0.600413  0.325733
    O   O64   0.390955  0.982497  0.603730  -0.497879
    H   H64   0.373566  0.024731  0.600413  0.325760
    O   O65   0.480241  0.890622  0.825156  -0.480141
    H   H65   0.519465  0.866767  0.827227  0.327564
    O   O66   0.109379  0.480247  0.825156  -0.480105
    H   H66   0.133232  0.519472  0.827227  0.327503
    O   O67   0.519759  0.109378  0.825156  -0.480164
    H   H67   0.480536  0.133233  0.827227  0.327582
    O   O68   0.890621  0.519754  0.825156  -0.480096
    H   H68   0.866768  0.480529  0.827227  0.327501
    O   O69   0.480201  0.109371  0.174844  -0.480131
    H   H69   0.519416  0.133240  0.172773  0.327739
    O   O70   0.109370  0.519804  0.174844  -0.480046
    H   H70   0.133241  0.480589  0.172773  0.327762
    O   O71   0.519799  0.890629  0.174844  -0.480285
    H   H71   0.480584  0.866760  0.172773  0.327694
    O   O72   0.890630  0.480197  0.174844  -0.480035
    H   H72   0.866760  0.519411  0.172773  0.327747
    O   O73   0.980244  0.390621  0.325156  -0.480144
    H   H73   0.019468  0.366768  0.327227  0.327550
    O   O74   0.609378  0.980240  0.325156  -0.480128
    H   H74   0.633233  0.019463  0.327227  0.327546
    O   O75   0.019756  0.609379  0.325156  -0.480103
    H   H75   0.980532  0.633232  0.327227  0.327512
    O   O76   0.390622  0.019760  0.325156  -0.480125
    H   H76   0.366767  0.980537  0.327227  0.327562
    O   O77   0.980194  0.609370  0.674844  -0.480051
    H   H77   0.019407  0.633241  0.672773  0.327746
    O   O78   0.609371  0.019800  0.674844  -0.480063
    H   H78   0.633240  0.980586  0.672773  0.327763
    O   O79   0.019806  0.390630  0.674844  -0.480049
    H   H79   0.980593  0.366759  0.672773  0.327750
    O   O80   0.390629  0.980200  0.674844  -0.480045
    H   H80   0.366760  0.019414  0.672773  0.327753
