# Generated by REPEAT Assigner based on pymatgen
data_DB0-m2_o1_o3_f0_nbo.sym.84
_audit_creation_date              2022-05-24
_audit_creation_method            REPEAT_Assigner
_cell_length_a                    21.516002
_cell_length_b                    21.516002
_cell_length_c                    38.569625
_cell_angle_alpha                 90.000000
_cell_angle_beta                  90.000000
_cell_angle_gamma                 90.000000
_cell_volume                      17855.358630
_symmetry_space_group_name_H-M    P1
_symmetry_Int_Tables_number       1
loop_
    _symmetry_equiv_pos_site_id
    _symmetry_equiv_pos_as_xyz
    1  x,y,z
loop_
    _atom_site_type_symbol
    _atom_site_label
    _atom_site_fract_x
    _atom_site_fract_y
    _atom_site_fract_z
    _atom_type_partial_charge
    C   C1    0.617514  0.000334  0.491360  0.711881
    C   C2    0.000000  0.500001  0.556572  0.705005
    C   C3    0.460589  0.780119  0.973383  -0.169357
    C   C4    0.213963  0.532928  0.019851  -0.135295
    C   C5    0.532927  0.786038  0.019851  -0.135507
    C   C6    0.786037  0.467073  0.019851  -0.135232
    C   C7    0.467073  0.213964  0.019851  -0.135386
    C   C8    0.783646  0.958163  0.476817  0.012114
    C   C9    0.041838  0.783646  0.476817  0.012170
    C   C10   0.216354  0.041839  0.476817  0.011676
    C   C11   0.958162  0.216355  0.476817  0.012059
    C   C12   0.777203  0.028207  0.525140  0.023526
    C   C13   0.500000  0.000001  0.425076  0.663091
    C   C14   0.028207  0.222797  0.525140  0.023327
    C   C15   0.222797  0.971794  0.525140  0.023315
    C   C16   0.971793  0.777204  0.525140  0.023536
    C   C17   0.283646  0.458163  0.976817  0.012072
    C   C18   0.541838  0.283646  0.976817  0.012175
    C   C19   0.716354  0.541839  0.976817  0.011490
    C   C20   0.458162  0.716355  0.976817  0.012019
    C   C21   0.277203  0.528207  0.025140  0.023627
    C   C22   0.528207  0.722797  0.025140  0.023453
    C   C23   0.722797  0.471794  0.025140  0.023630
    C   C24   0.000000  0.500001  0.425076  0.662991
    C   C25   0.471793  0.277204  0.025140  0.023676
    C   C26   0.813292  0.993748  0.502114  -0.034181
    C   C27   0.006253  0.813293  0.502114  -0.033941
    C   C28   0.186708  0.006254  0.502114  -0.033799
    C   C29   0.993747  0.186708  0.502114  -0.034248
    C   C30   0.313292  0.493748  0.002114  -0.034196
    C   C31   0.506253  0.313293  0.002114  -0.034029
    C   C32   0.686708  0.506254  0.002114  -0.033612
    C   C33   0.493747  0.686708  0.002114  -0.034306
    C   C34   0.685165  0.999092  0.494224  -0.021967
    C   C35   0.000000  0.500001  0.056572  0.704807
    C   C36   0.000908  0.685165  0.494224  -0.022068
    C   C37   0.314835  0.000909  0.494224  -0.021771
    C   C38   0.999092  0.314836  0.494224  -0.021396
    C   C39   0.185165  0.499092  0.994224  -0.021949
    C   C40   0.500908  0.185165  0.994224  -0.021911
    C   C41   0.814835  0.500909  0.994224  -0.021831
    C   C42   0.499092  0.814836  0.994224  -0.021368
    C   C43   0.996063  0.118315  0.503326  0.502748
    C   C44   0.881686  0.996063  0.503326  0.502497
    C   C45   0.003937  0.881686  0.503326  0.501989
    C   C46   0.500000  0.000001  0.056572  0.705130
    C   C47   0.118314  0.003938  0.503326  0.502090
    C   C48   0.496063  0.618315  0.003326  0.502879
    C   C49   0.381686  0.496063  0.003326  0.502576
    C   C50   0.503937  0.381686  0.003326  0.502112
    C   C51   0.618314  0.503938  0.003326  0.501976
    C   C52   0.817381  0.911565  0.456403  0.285786
    C   C53   0.811099  0.849117  0.464371  -0.102088
    C   C54   0.843862  0.805153  0.445908  -0.017047
    C   C55   0.881201  0.822884  0.418672  0.023649
    C   C56   0.884782  0.884616  0.409386  -0.067615
    C   C57   0.000000  0.500001  0.925076  0.663122
    C   C58   0.852468  0.928769  0.427988  -0.307952
    C   C59   0.088436  0.817382  0.456403  0.285813
    C   C60   0.150884  0.811099  0.464371  -0.101777
    C   C61   0.194847  0.843862  0.445908  -0.017261
    C   C62   0.177117  0.881202  0.418672  0.023625
    C   C63   0.115385  0.884782  0.409386  -0.067448
    C   C64   0.071232  0.852469  0.427988  -0.308271
    C   C65   0.182619  0.088437  0.456403  0.286229
    C   C66   0.188901  0.150884  0.464371  -0.102135
    C   C67   0.156138  0.194848  0.445908  -0.017240
    C   C68   0.500000  0.000001  0.925076  0.663107
    C   C69   0.118798  0.177118  0.418672  0.023964
    C   C70   0.115218  0.115385  0.409386  -0.067721
    C   C71   0.147531  0.071233  0.427988  -0.308305
    C   C72   0.911564  0.182619  0.456403  0.285836
    C   C73   0.849116  0.188902  0.464371  -0.101767
    C   C74   0.805153  0.156139  0.445908  -0.017333
    C   C75   0.822883  0.118799  0.418672  0.024008
    C   C76   0.884615  0.115219  0.409386  -0.067568
    C   C77   0.928768  0.147532  0.427988  -0.308131
    C   C78   0.804052  0.061066  0.554905  0.168763
    C   C79   0.554791  0.991767  0.869007  -0.066822
    C   C80   0.784878  0.047743  0.588454  0.039637
    C   C81   0.810059  0.079831  0.616026  -0.164675
    C   C82   0.853335  0.125872  0.610410  0.035422
    C   C83   0.871243  0.140142  0.577108  0.040226
    C   C84   0.846652  0.107823  0.549558  -0.305713
    C   C85   0.061066  0.195949  0.554905  0.169093
    C   C86   0.047742  0.215123  0.588454  0.039652
    C   C87   0.079830  0.189941  0.616026  -0.164961
    C   C88   0.125871  0.146666  0.610410  0.035932
    C   C89   0.140141  0.128757  0.577108  0.039624
    C   C90   0.008234  0.554791  0.869007  -0.066684
    C   C91   0.107822  0.153349  0.549558  -0.305701
    C   C92   0.195948  0.938935  0.554905  0.169116
    C   C93   0.215122  0.952258  0.588454  0.039361
    C   C94   0.189941  0.920171  0.616026  -0.164866
    C   C95   0.146665  0.874129  0.610410  0.035937
    C   C96   0.128757  0.859859  0.577108  0.039721
    C   C97   0.153348  0.892179  0.549558  -0.305937
    C   C98   0.938934  0.804052  0.554905  0.168851
    C   C99   0.952258  0.784879  0.588454  0.039590
    C   C100  0.920170  0.810060  0.616026  -0.164599
    C   C101  0.445209  0.008234  0.869007  -0.066409
    C   C102  0.874129  0.853335  0.610410  0.035626
    C   C103  0.859859  0.871244  0.577108  0.040017
    C   C104  0.892178  0.846652  0.549558  -0.305929
    C   C105  0.317381  0.411565  0.956403  0.285860
    C   C106  0.311099  0.349117  0.964371  -0.102116
    C   C107  0.343862  0.305153  0.945908  -0.017087
    C   C108  0.381201  0.322884  0.918672  0.023704
    C   C109  0.384782  0.384616  0.909386  -0.067709
    C   C110  0.352468  0.428769  0.927988  -0.307873
    C   C111  0.588436  0.317382  0.956403  0.285830
    C   C112  0.999667  0.617514  0.491360  0.712032
    C   C113  0.991766  0.445210  0.869007  -0.066476
    C   C114  0.650884  0.311099  0.964371  -0.101722
    C   C115  0.694847  0.343862  0.945908  -0.017347
    C   C116  0.677117  0.381202  0.918672  0.023637
    C   C117  0.615385  0.384782  0.909386  -0.067430
    C   C118  0.571232  0.352469  0.927988  -0.308300
    C   C119  0.682619  0.588437  0.956403  0.286371
    C   C120  0.688901  0.650884  0.964371  -0.102207
    C   C121  0.656138  0.694848  0.945908  -0.017235
    C   C122  0.618798  0.677118  0.918672  0.023983
    C   C123  0.615218  0.615385  0.909386  -0.067914
    C   C124  0.554536  0.009778  0.112636  -0.004578
    C   C125  0.647532  0.571232  0.927988  -0.308118
    C   C126  0.411564  0.682619  0.956403  0.285863
    C   C127  0.349116  0.688902  0.964371  -0.101673
    C   C128  0.305153  0.656139  0.945908  -0.017563
    C   C129  0.322883  0.618799  0.918672  0.024087
    C   C130  0.384615  0.615219  0.909386  -0.067664
    C   C131  0.428768  0.647532  0.927988  -0.308026
    C   C132  0.304052  0.561066  0.054905  0.168661
    C   C133  0.284878  0.547743  0.088454  0.039657
    C   C134  0.310059  0.579831  0.116026  -0.164678
    C   C135  0.009778  0.445464  0.112636  -0.004552
    C   C136  0.353335  0.625872  0.110410  0.035433
    C   C137  0.371243  0.640142  0.077108  0.040192
    C   C138  0.346652  0.607823  0.049558  -0.305594
    C   C139  0.561066  0.695949  0.054905  0.169036
    C   C140  0.547742  0.715123  0.088454  0.039675
    C   C141  0.579830  0.689941  0.116026  -0.164973
    C   C142  0.625871  0.646666  0.110410  0.035900
    C   C143  0.640141  0.628757  0.077108  0.039734
    C   C144  0.607822  0.653349  0.049558  -0.305693
    C   C145  0.695948  0.438935  0.054905  0.168661
    C   C146  0.445464  0.990223  0.112636  -0.004974
    C   C147  0.715122  0.452258  0.088454  0.039508
    C   C148  0.689941  0.420171  0.116026  -0.164870
    C   C149  0.646665  0.374129  0.110410  0.035940
    C   C150  0.628757  0.359859  0.077108  0.039685
    C   C151  0.653348  0.392179  0.049558  -0.305641
    C   C152  0.438934  0.304052  0.054905  0.168717
    C   C153  0.452258  0.284878  0.088454  0.039680
    C   C154  0.420170  0.310060  0.116026  -0.164655
    C   C155  0.374129  0.353335  0.110410  0.035625
    C   C156  0.359859  0.371244  0.077108  0.040012
    C   C157  0.990222  0.554537  0.112636  -0.004815
    C   C158  0.392178  0.346652  0.049558  -0.305826
    C   C159  0.054791  0.491767  0.369007  -0.066831
    C   C160  0.508234  0.054791  0.369007  -0.066652
    C   C161  0.945209  0.508235  0.369007  -0.066376
    C   C162  0.491766  0.945210  0.369007  -0.066438
    C   C163  0.054536  0.509778  0.612636  -0.004584
    C   C164  0.382486  0.999667  0.491360  0.711761
    C   C165  0.509778  0.945464  0.612636  -0.004555
    C   C166  0.945464  0.490223  0.612636  -0.004967
    C   C167  0.490222  0.054537  0.612636  -0.004853
    C   C168  0.554844  0.992130  0.833272  -0.155631
    C   C169  0.007871  0.554845  0.833272  -0.155652
    C   C170  0.445156  0.007871  0.833272  -0.156064
    C   C171  0.992129  0.445157  0.833272  -0.155988
    C   C172  0.554595  0.009439  0.148368  -0.173251
    C   C173  0.009438  0.445405  0.148368  -0.173338
    C   C174  0.445405  0.990562  0.148368  -0.172900
    C   C175  0.000333  0.382487  0.491360  0.711462
    C   C176  0.990562  0.554596  0.148368  -0.172946
    C   C177  0.054844  0.492130  0.333272  -0.155617
    C   C178  0.507871  0.054845  0.333272  -0.155669
    C   C179  0.945156  0.507871  0.333272  -0.156086
    C   C180  0.492129  0.945157  0.333272  -0.156002
    C   C181  0.054595  0.509439  0.648368  -0.173258
    C   C182  0.509438  0.945405  0.648368  -0.173338
    C   C183  0.945405  0.490562  0.648368  -0.172928
    C   C184  0.490562  0.054596  0.648368  -0.172941
    C   C185  0.500000  0.000001  0.815067  0.091520
    C   C186  0.117514  0.500334  0.991360  0.711958
    C   C187  0.000000  0.500001  0.815067  0.091452
    C   C188  0.500000  0.000001  0.166569  0.058649
    C   C189  0.000000  0.500001  0.166569  0.058583
    C   C190  0.000000  0.500001  0.315067  0.091497
    C   C191  0.500000  0.000001  0.315067  0.091476
    C   C192  0.000000  0.500001  0.666569  0.058647
    C   C193  0.500000  0.000001  0.666569  0.058588
    C   C194  0.500000  0.000001  0.887085  -0.029356
    C   C195  0.000000  0.500001  0.887085  -0.029339
    C   C196  0.500000  0.000001  0.094558  -0.150746
    C   C197  0.499667  0.117514  0.991360  0.711860
    C   C198  0.000000  0.500001  0.094558  -0.150802
    C   C199  0.000000  0.500001  0.387085  -0.029326
    C   C200  0.500000  0.000001  0.387085  -0.029392
    C   C201  0.000000  0.500001  0.594558  -0.150690
    C   C202  0.500000  0.000001  0.594558  -0.150761
    C   C203  0.460349  0.038633  0.758680  -0.132707
    C   C204  0.961368  0.460350  0.758680  -0.132866
    C   C205  0.539650  0.961369  0.758680  -0.133281
    C   C206  0.038632  0.539651  0.758680  -0.133331
    C   C207  0.461544  0.960180  0.222949  -0.185441
    C   C208  0.882486  0.499667  0.991360  0.711716
    C   C209  0.960179  0.538456  0.222949  -0.185624
    C   C210  0.538456  0.039821  0.222949  -0.184755
    C   C211  0.039821  0.461545  0.222949  -0.185056
    C   C212  0.960349  0.538633  0.258680  -0.132696
    C   C213  0.461368  0.960350  0.258680  -0.132892
    C   C214  0.039650  0.461369  0.258680  -0.133301
    C   C215  0.538632  0.039651  0.258680  -0.133526
    C   C216  0.961544  0.460180  0.722949  -0.185501
    C   C217  0.460179  0.038456  0.722949  -0.185586
    C   C218  0.038456  0.539821  0.722949  -0.184925
    C   C219  0.500333  0.882487  0.991360  0.711418
    C   C220  0.539821  0.961545  0.722949  -0.185062
    C   C221  0.500000  0.000001  0.704739  0.142671
    C   C222  0.000000  0.500001  0.704739  0.142555
    C   C223  0.500000  0.000001  0.276894  0.075210
    C   C224  0.000000  0.500001  0.276894  0.075074
    C   C225  0.000000  0.500001  0.204739  0.142693
    C   C226  0.500000  0.000001  0.204739  0.142466
    C   C227  0.000000  0.500001  0.776894  0.075149
    C   C228  0.500000  0.000001  0.776894  0.075057
    C   C229  0.719881  0.960589  0.473383  -0.169203
    C   C230  0.500000  0.000001  0.556572  0.704741
    C   C231  0.039411  0.719882  0.473383  -0.169449
    C   C232  0.280119  0.039412  0.473383  -0.169307
    C   C233  0.960589  0.280119  0.473383  -0.169324
    C   C234  0.713963  0.032928  0.519851  -0.135255
    C   C235  0.032927  0.286038  0.519851  -0.135432
    C   C236  0.286037  0.967073  0.519851  -0.135189
    C   C237  0.967073  0.713964  0.519851  -0.135256
    C   C238  0.219881  0.460589  0.973383  -0.169242
    C   C239  0.539411  0.219882  0.973383  -0.169490
    C   C240  0.780119  0.539412  0.973383  -0.169272
    Cl  Cl1   0.762346  0.824596  0.498183  -0.051971
    Cl  Cl2   0.885315  0.166196  0.645556  -0.087573
    Cl  Cl3   0.989362  0.269925  0.597146  -0.059100
    Cl  Cl4   0.166195  0.114686  0.645556  -0.087687
    Cl  Cl5   0.269925  0.010639  0.597146  -0.058977
    Cl  Cl6   0.114685  0.833806  0.645556  -0.087731
    Cl  Cl7   0.010638  0.730076  0.597146  -0.059157
    Cl  Cl8   0.833805  0.885315  0.645556  -0.087689
    Cl  Cl9   0.262346  0.324596  0.998183  -0.051962
    Cl  Cl10  0.422702  0.266692  0.895387  -0.092734
    Cl  Cl11  0.675404  0.262347  0.998183  -0.052091
    Cl  Cl12  0.922702  0.766692  0.395387  -0.092711
    Cl  Cl13  0.733308  0.422703  0.895387  -0.092712
    Cl  Cl14  0.737654  0.675405  0.998183  -0.051796
    Cl  Cl15  0.577298  0.733309  0.895387  -0.092775
    Cl  Cl16  0.324596  0.737654  0.998183  -0.051949
    Cl  Cl17  0.266692  0.577298  0.895387  -0.092828
    Cl  Cl18  0.230075  0.489362  0.097146  -0.059103
    Cl  Cl19  0.385315  0.666196  0.145556  -0.087573
    Cl  Cl20  0.489362  0.769925  0.097146  -0.059100
    Cl  Cl21  0.666195  0.614686  0.145556  -0.087678
    Cl  Cl22  0.769925  0.510639  0.097146  -0.058998
    Cl  Cl23  0.175404  0.762347  0.498183  -0.052082
    Cl  Cl24  0.614685  0.333806  0.145556  -0.087732
    Cl  Cl25  0.510638  0.230076  0.097146  -0.059165
    Cl  Cl26  0.333805  0.385315  0.145556  -0.087682
    Cl  Cl27  0.233308  0.922703  0.395387  -0.092727
    Cl  Cl28  0.237654  0.175405  0.498183  -0.051799
    Cl  Cl29  0.077298  0.233309  0.395387  -0.092788
    Cl  Cl30  0.824596  0.237654  0.498183  -0.051934
    Cl  Cl31  0.766692  0.077298  0.395387  -0.092841
    Cl  Cl32  0.730075  0.989362  0.597146  -0.059095
    Cu  Cu1   0.499614  0.060632  0.490824  0.946289
    Cu  Cu2   0.000000  0.000001  0.537607  0.819927
    Cu  Cu3   0.500000  0.500001  0.969914  0.786533
    Cu  Cu4   0.500000  0.500001  0.037607  0.819946
    Cu  Cu5   0.939368  0.499615  0.490824  0.946467
    Cu  Cu6   0.500386  0.939369  0.490824  0.946364
    Cu  Cu7   0.060632  0.500386  0.490824  0.946428
    Cu  Cu8   0.999614  0.560632  0.990824  0.946397
    Cu  Cu9   0.439368  0.999615  0.990824  0.946457
    Cu  Cu10  0.000386  0.439369  0.990824  0.946357
    Cu  Cu11  0.560632  0.000386  0.990824  0.946468
    Cu  Cu12  0.000000  0.000001  0.469914  0.786572
    H   H1    0.598401  0.985903  0.882500  0.105663
    H   H2    0.514098  0.098401  0.382500  0.105631
    H   H3    0.476925  0.644889  0.920329  0.173457
    H   H4    0.295732  0.568779  0.142168  0.126603
    H   H5    0.404799  0.676422  0.072446  0.070629
    H   H6    0.361143  0.618937  0.023600  0.168376
    H   H7    0.568778  0.704269  0.142168  0.126714
    H   H8    0.676422  0.595202  0.072446  0.070653
    H   H9    0.618936  0.638857  0.023600  0.168487
    H   H10   0.704268  0.431223  0.142168  0.126659
    H   H11   0.595202  0.323579  0.072446  0.070660
    H   H12   0.638857  0.381064  0.023600  0.168461
    H   H13   0.901599  0.514098  0.382500  0.105645
    H   H14   0.431222  0.295732  0.142168  0.126639
    H   H15   0.323578  0.404799  0.072446  0.070534
    H   H16   0.381064  0.361144  0.023601  0.168544
    H   H17   0.485902  0.901600  0.382500  0.105549
    H   H18   0.097963  0.516902  0.599148  0.103965
    H   H19   0.516901  0.902038  0.599148  0.103941
    H   H20   0.902037  0.483099  0.599148  0.103986
    H   H21   0.483099  0.097964  0.599148  0.104055
    H   H22   0.598696  0.987502  0.819891  0.109235
    H   H23   0.012498  0.598697  0.819891  0.109238
    H   H24   0.401303  0.012499  0.819891  0.109121
    H   H25   0.014098  0.598401  0.882500  0.105648
    H   H26   0.987502  0.401304  0.819891  0.109067
    H   H27   0.598291  0.015334  0.161753  0.107276
    H   H28   0.015334  0.401709  0.161753  0.107288
    H   H29   0.401709  0.984667  0.161753  0.107397
    H   H30   0.984666  0.598292  0.161753  0.107434
    H   H31   0.098696  0.487502  0.319891  0.109240
    H   H32   0.512498  0.098697  0.319891  0.109241
    H   H33   0.901303  0.512499  0.319891  0.109115
    H   H34   0.487502  0.901304  0.319891  0.109069
    H   H35   0.098291  0.515334  0.661753  0.107283
    H   H36   0.401599  0.014098  0.882500  0.105647
    H   H37   0.515334  0.901709  0.661753  0.107290
    H   H38   0.901709  0.484667  0.661753  0.107405
    H   H39   0.484666  0.098292  0.661753  0.107435
    H   H40   0.429627  0.070275  0.772052  0.114173
    H   H41   0.929725  0.429627  0.772052  0.114110
    H   H42   0.570373  0.929726  0.772052  0.113940
    H   H43   0.070275  0.570374  0.772052  0.114108
    H   H44   0.431800  0.927621  0.209573  0.135301
    H   H45   0.927620  0.568201  0.209573  0.135415
    H   H46   0.568200  0.072380  0.209573  0.135381
    H   H47   0.985902  0.401600  0.882500  0.105562
    H   H48   0.072380  0.431800  0.209573  0.135411
    H   H49   0.929627  0.570275  0.272052  0.114191
    H   H50   0.429725  0.929627  0.272052  0.114105
    H   H51   0.070373  0.429726  0.272052  0.113938
    H   H52   0.570275  0.070374  0.272052  0.114162
    H   H53   0.931800  0.427621  0.709573  0.135313
    H   H54   0.427620  0.068201  0.709573  0.135410
    H   H55   0.068200  0.572380  0.709573  0.135416
    H   H56   0.572380  0.931800  0.709573  0.135410
    H   H57   0.697431  0.932024  0.454032  0.127197
    H   H58   0.597963  0.016902  0.099148  0.103977
    H   H59   0.067977  0.697432  0.454032  0.127250
    H   H60   0.302569  0.067977  0.454032  0.127252
    H   H61   0.932023  0.302570  0.454032  0.127197
    H   H62   0.686605  0.061689  0.537015  0.100613
    H   H63   0.061689  0.313396  0.537015  0.100630
    H   H64   0.313395  0.938312  0.537015  0.100481
    H   H65   0.938311  0.686605  0.537015  0.100505
    H   H66   0.197431  0.432024  0.954032  0.127194
    H   H67   0.567977  0.197432  0.954032  0.127261
    H   H68   0.802569  0.567977  0.954032  0.127227
    H   H69   0.016901  0.402038  0.099148  0.103946
    H   H70   0.432023  0.802570  0.954032  0.127206
    H   H71   0.186605  0.561689  0.037015  0.100624
    H   H72   0.561689  0.813396  0.037015  0.100651
    H   H73   0.813395  0.438312  0.037015  0.100483
    H   H74   0.438311  0.186605  0.037015  0.100552
    H   H75   0.840066  0.756591  0.452759  0.091755
    H   H76   0.913124  0.898484  0.387582  0.106840
    H   H77   0.855112  0.976926  0.420329  0.173512
    H   H78   0.243409  0.840067  0.452759  0.091823
    H   H79   0.101517  0.913125  0.387582  0.106833
    H   H80   0.402037  0.983099  0.099148  0.103985
    H   H81   0.023075  0.855112  0.420329  0.173525
    H   H82   0.159934  0.243410  0.452759  0.091919
    H   H83   0.086876  0.101517  0.387582  0.106845
    H   H84   0.144888  0.023075  0.420329  0.173650
    H   H85   0.756590  0.159935  0.452759  0.091846
    H   H86   0.898483  0.086877  0.387582  0.106780
    H   H87   0.976925  0.144889  0.420329  0.173489
    H   H88   0.795732  0.068779  0.642168  0.126604
    H   H89   0.904798  0.176423  0.572446  0.070640
    H   H90   0.861143  0.118937  0.523600  0.168458
    H   H91   0.983099  0.597964  0.099148  0.104042
    H   H92   0.068778  0.204269  0.642168  0.126709
    H   H93   0.176422  0.095202  0.572446  0.070729
    H   H94   0.118936  0.138857  0.523600  0.168552
    H   H95   0.204268  0.931223  0.642168  0.126670
    H   H96   0.095202  0.823579  0.572446  0.070679
    H   H97   0.138857  0.881064  0.523600  0.168587
    H   H98   0.931222  0.795732  0.642168  0.126625
    H   H99   0.823578  0.904799  0.572446  0.070544
    H   H100  0.881064  0.861144  0.523601  0.168613
    H   H101  0.340066  0.256591  0.952759  0.091772
    H   H102  0.098401  0.485903  0.382500  0.105656
    H   H103  0.413124  0.398484  0.887582  0.106867
    H   H104  0.355112  0.476926  0.920329  0.173465
    H   H105  0.743409  0.340067  0.952759  0.091841
    H   H106  0.601517  0.413125  0.887582  0.106824
    H   H107  0.523075  0.355112  0.920329  0.173543
    H   H108  0.659934  0.743410  0.952759  0.091920
    H   H109  0.586876  0.601517  0.887582  0.106882
    H   H110  0.644888  0.523075  0.920329  0.173610
    H   H111  0.256590  0.659934  0.952759  0.091923
    H   H112  0.398483  0.586877  0.887582  0.106799
    O   O1    0.588088  0.051505  0.500829  -0.587427
    O   O2    0.448495  0.088088  0.000829  -0.587423
    O   O3    0.911912  0.448496  0.000829  -0.587606
    O   O4    0.551504  0.911913  0.000829  -0.587609
    O   O5    0.088834  0.449314  0.980944  -0.587678
    O   O6    0.449313  0.911166  0.980944  -0.587513
    O   O7    0.911166  0.550688  0.980944  -0.587347
    O   O8    0.550687  0.088835  0.980944  -0.587431
    O   O9    0.481965  0.050986  0.540289  -0.586433
    O   O10   0.949015  0.481966  0.540289  -0.586679
    O   O11   0.518035  0.949015  0.540289  -0.586682
    O   O12   0.948495  0.588088  0.500829  -0.587450
    O   O13   0.050985  0.518036  0.540289  -0.586728
    O   O14   0.482635  0.948763  0.441355  -0.592551
    O   O15   0.948762  0.517365  0.441355  -0.592485
    O   O16   0.517365  0.051238  0.441355  -0.592266
    O   O17   0.051238  0.482636  0.441355  -0.592381
    O   O18   0.981965  0.550986  0.040289  -0.586480
    O   O19   0.449015  0.981966  0.040289  -0.586694
    O   O20   0.018035  0.449015  0.040289  -0.586709
    O   O21   0.550985  0.018035  0.040289  -0.586803
    O   O22   0.982635  0.448763  0.941355  -0.592576
    O   O23   0.411912  0.948496  0.500829  -0.587635
    O   O24   0.448762  0.017365  0.941355  -0.592509
    O   O25   0.017365  0.551238  0.941355  -0.592367
    O   O26   0.551238  0.982636  0.941355  -0.592454
    O   O27   0.014734  0.089231  0.475136  -0.461459
    O   O28   0.910770  0.014734  0.475136  -0.461753
    O   O29   0.985266  0.910770  0.475136  -0.461381
    O   O30   0.089230  0.985267  0.475136  -0.461559
    O   O31   0.018040  0.911242  0.532346  -0.458743
    O   O32   0.911242  0.981960  0.532346  -0.459050
    O   O33   0.981960  0.088759  0.532346  -0.459432
    O   O34   0.051504  0.411913  0.500829  -0.587673
    O   O35   0.088758  0.018041  0.532346  -0.458916
    O   O36   0.514734  0.589231  0.975136  -0.461516
    O   O37   0.410770  0.514734  0.975136  -0.461716
    O   O38   0.485266  0.410770  0.975136  -0.461410
    O   O39   0.589230  0.485267  0.975136  -0.461538
    O   O40   0.518040  0.411242  0.032346  -0.458810
    O   O41   0.411242  0.481960  0.032346  -0.459100
    O   O42   0.481960  0.588759  0.032346  -0.459457
    O   O43   0.588758  0.518041  0.032346  -0.458902
    O   O44   0.588834  0.949314  0.480944  -0.587664
    O   O45   0.949313  0.411166  0.480944  -0.587535
    O   O46   0.411166  0.050688  0.480944  -0.587403
    O   O47   0.050687  0.588835  0.480944  -0.587433
    O   O48   0.088088  0.551505  0.000829  -0.587494
