# Generated by REPEAT Assigner based on pymatgen
data_DB0-m2_o1_o3_f0_nbo.sym.30_sqe
_audit_creation_date              2022-05-24
_audit_creation_method            REPEAT_Assigner
_cell_length_a                    21.606227
_cell_length_b                    21.606227
_cell_length_c                    38.570134
_cell_angle_alpha                 90.000000
_cell_angle_beta                  90.000000
_cell_angle_gamma                 90.000000
_cell_volume                      18005.658447
_symmetry_space_group_name_H-M    P1
_symmetry_Int_Tables_number       1
loop_
    _symmetry_equiv_pos_site_id
    _symmetry_equiv_pos_as_xyz
    1  x,y,z
loop_
    _atom_site_type_symbol
    _atom_site_label
    _atom_site_fract_x
    _atom_site_fract_y
    _atom_site_fract_z
    _atom_type_partial_charge
    O   O1    0.588112  0.050896  0.509903  -0.591380
    O   O2    0.949105  0.588112  0.509903  -0.591355
    O   O3    0.411888  0.949105  0.509903  -0.591352
    O   O4    0.050896  0.411888  0.509903  -0.591399
    O   O5    0.588112  0.949105  0.490097  -0.591356
    O   O6    0.949105  0.411888  0.490097  -0.591359
    O   O7    0.411888  0.050896  0.490097  -0.591376
    O   O8    0.050896  0.588112  0.490097  -0.591393
    O   O9    0.088112  0.550896  0.009903  -0.591384
    O   O10   0.449105  0.088112  0.009903  -0.591350
    O   O11   0.911888  0.449105  0.009903  -0.591370
    O   O12   0.550896  0.911888  0.009903  -0.591363
    O   O13   0.088112  0.449105  0.990097  -0.591375
    O   O14   0.449105  0.911888  0.990097  -0.591345
    O   O15   0.911888  0.550896  0.990097  -0.591372
    O   O16   0.550896  0.088112  0.990097  -0.591362
    C   C1    0.617092  0.000000  0.500000  0.683779
    C   C2    0.000000  0.617092  0.500000  0.683873
    C   C3    0.382908  0.000000  0.500000  0.683766
    C   C4    0.000000  0.382908  0.500000  0.683881
    C   C5    0.117092  0.500000  0.000000  0.683807
    C   C6    0.500000  0.117092  0.000000  0.683784
    C   C7    0.882908  0.500000  0.000000  0.683807
    C   C8    0.500000  0.882908  0.000000  0.683819
    O   O17   0.482440  0.050915  0.549475  -0.598687
    O   O18   0.949085  0.482440  0.549475  -0.598660
    O   O19   0.517560  0.949085  0.549475  -0.598664
    O   O20   0.050915  0.517560  0.549475  -0.598679
    O   O21   0.482440  0.949085  0.450525  -0.598688
    O   O22   0.949085  0.517560  0.450525  -0.598670
    O   O23   0.517560  0.050915  0.450525  -0.598698
    O   O24   0.050915  0.482440  0.450525  -0.598695
    O   O25   0.982440  0.550915  0.049475  -0.598701
    O   O26   0.449085  0.982440  0.049475  -0.598680
    O   O27   0.017560  0.449085  0.049475  -0.598692
    O   O28   0.550915  0.017560  0.049475  -0.598693
    O   O29   0.982440  0.449085  0.950525  -0.598692
    O   O30   0.449085  0.017560  0.950525  -0.598671
    O   O31   0.017560  0.550915  0.950525  -0.598698
    O   O32   0.550915  0.982440  0.950525  -0.598678
    C   C9    0.500000  0.000000  0.565757  0.701346
    C   C10   0.000000  0.500000  0.565757  0.701430
    C   C11   0.500000  0.000000  0.434243  0.701387
    C   C12   0.000000  0.500000  0.434243  0.701460
    C   C13   0.000000  0.500000  0.065757  0.701401
    C   C14   0.500000  0.000000  0.065757  0.701413
    C   C15   0.000000  0.500000  0.934243  0.701451
    C   C16   0.500000  0.000000  0.934243  0.701429
    Cu  Cu1   0.500000  0.060387  0.500000  0.966980
    Cu  Cu2   0.939613  0.500000  0.500000  0.966999
    Cu  Cu3   0.500000  0.939613  0.500000  0.966953
    Cu  Cu4   0.060387  0.500000  0.500000  0.967010
    Cu  Cu5   0.000000  0.560387  0.000000  0.966960
    Cu  Cu6   0.439613  0.000000  0.000000  0.967026
    Cu  Cu7   0.000000  0.439613  0.000000  0.966923
    Cu  Cu8   0.560387  0.000000  0.000000  0.967001
    C   C17   0.554487  0.991305  0.878172  -0.073743
    C   C18   0.008695  0.554487  0.878172  -0.073747
    C   C19   0.445513  0.008695  0.878172  -0.073741
    C   C20   0.991305  0.445513  0.878172  -0.073753
    C   C21   0.554487  0.008695  0.121828  -0.073748
    C   C22   0.008695  0.445513  0.121828  -0.073934
    C   C23   0.445513  0.991305  0.121828  -0.073750
    C   C24   0.991305  0.554487  0.121828  -0.073794
    C   C25   0.054487  0.491305  0.378172  -0.073777
    C   C26   0.508695  0.054487  0.378172  -0.073757
    C   C27   0.945513  0.508695  0.378172  -0.073915
    C   C28   0.491305  0.945513  0.378172  -0.073764
    C   C29   0.054487  0.508695  0.621828  -0.073948
    C   C30   0.508695  0.945513  0.621828  -0.073928
    C   C31   0.945513  0.491305  0.621828  -0.073951
    C   C32   0.491305  0.054487  0.621828  -0.073797
    H   H1    0.597861  0.985066  0.891663  0.117358
    H   H2    0.014934  0.597861  0.891663  0.117360
    H   H3    0.402139  0.014934  0.891663  0.117361
    H   H4    0.985066  0.402139  0.891663  0.117361
    H   H5    0.597861  0.014934  0.108337  0.117362
    H   H6    0.014934  0.402139  0.108337  0.117402
    H   H7    0.402139  0.985066  0.108337  0.117362
    H   H8    0.985066  0.597861  0.108337  0.117363
    H   H9    0.097861  0.485066  0.391663  0.117356
    H   H10   0.514934  0.097861  0.391663  0.117366
    H   H11   0.902139  0.514934  0.391663  0.117396
    H   H12   0.485066  0.902139  0.391663  0.117367
    H   H13   0.097861  0.514934  0.608337  0.117390
    H   H14   0.514934  0.902139  0.608337  0.117399
    H   H15   0.902139  0.485066  0.608337  0.117391
    H   H16   0.485066  0.097861  0.608337  0.117362
    C   C33   0.554537  0.991636  0.842437  -0.165247
    C   C34   0.008364  0.554537  0.842437  -0.165239
    C   C35   0.445463  0.008364  0.842437  -0.165236
    C   C36   0.991636  0.445463  0.842437  -0.165232
    C   C37   0.554537  0.008364  0.157563  -0.165245
    C   C38   0.008364  0.445463  0.157563  -0.165076
    C   C39   0.445463  0.991636  0.157563  -0.165238
    C   C40   0.991636  0.554537  0.157563  -0.165182
    C   C41   0.054537  0.491636  0.342437  -0.165173
    C   C42   0.508364  0.054537  0.342437  -0.165239
    C   C43   0.945463  0.508364  0.342437  -0.165066
    C   C44   0.491636  0.945463  0.342437  -0.165230
    C   C45   0.054537  0.508364  0.657563  -0.165016
    C   C46   0.508364  0.945463  0.657563  -0.165079
    C   C47   0.945463  0.491636  0.657563  -0.165010
    C   C48   0.491636  0.054537  0.657563  -0.165170
    H   H17   0.598147  0.986587  0.829044  0.114976
    H   H18   0.013413  0.598147  0.829044  0.114968
    H   H19   0.401853  0.013413  0.829044  0.114963
    H   H20   0.986587  0.401853  0.829044  0.114965
    H   H21   0.598147  0.013413  0.170956  0.114971
    H   H22   0.013413  0.401853  0.170956  0.114936
    H   H23   0.401853  0.986587  0.170956  0.114967
    H   H24   0.986587  0.598147  0.170956  0.114961
    H   H25   0.098147  0.486587  0.329044  0.114957
    H   H26   0.513413  0.098147  0.329044  0.114970
    H   H27   0.901853  0.513413  0.329044  0.114932
    H   H28   0.486587  0.901853  0.329044  0.114967
    H   H29   0.098147  0.513413  0.670956  0.114928
    H   H30   0.513413  0.901853  0.670956  0.114939
    H   H31   0.901853  0.486587  0.670956  0.114925
    H   H32   0.486587  0.098147  0.670956  0.114959
    C   C49   0.500000  0.000000  0.824238  0.122618
    C   C50   0.000000  0.500000  0.824238  0.122655
    C   C51   0.500000  0.000000  0.175762  0.122657
    C   C52   0.000000  0.500000  0.175762  0.122569
    C   C53   0.000000  0.500000  0.324238  0.122572
    C   C54   0.500000  0.000000  0.324238  0.122656
    C   C55   0.000000  0.500000  0.675762  0.122485
    C   C56   0.500000  0.000000  0.675762  0.122538
    C   C57   0.500000  0.000000  0.896251  -0.070408
    C   C58   0.000000  0.500000  0.896251  -0.070425
    C   C59   0.500000  0.000000  0.103749  -0.070389
    C   C60   0.000000  0.500000  0.103749  -0.070309
    C   C61   0.000000  0.500000  0.396251  -0.070374
    C   C62   0.500000  0.000000  0.396251  -0.070388
    C   C63   0.000000  0.500000  0.603749  -0.070284
    C   C64   0.500000  0.000000  0.603749  -0.070296
    C   C65   0.461090  0.039055  0.767865  -0.132613
    C   C66   0.960945  0.461090  0.767865  -0.132541
    C   C67   0.538910  0.960945  0.767865  -0.132721
    C   C68   0.039055  0.538910  0.767865  -0.132545
    C   C69   0.461090  0.960945  0.232135  -0.132506
    C   C70   0.960945  0.538910  0.232135  -0.132498
    C   C71   0.538910  0.039055  0.232135  -0.132513
    C   C72   0.039055  0.461090  0.232135  -0.132513
    C   C73   0.961090  0.539055  0.267865  -0.132519
    C   C74   0.460945  0.961090  0.267865  -0.132517
    C   C75   0.038910  0.460945  0.267865  -0.132506
    C   C76   0.539055  0.038910  0.267865  -0.132518
    C   C77   0.961090  0.460945  0.732135  -0.132472
    C   C78   0.460945  0.038910  0.732135  -0.132462
    C   C79   0.038910  0.539055  0.732135  -0.132476
    C   C80   0.539055  0.961090  0.732135  -0.132486
    H   H33   0.430961  0.070996  0.781249  0.111638
    H   H34   0.929004  0.430961  0.781249  0.111627
    H   H35   0.569039  0.929004  0.781249  0.111684
    H   H36   0.070996  0.569039  0.781249  0.111630
    H   H37   0.430961  0.929004  0.218751  0.111619
    H   H38   0.929004  0.569039  0.218751  0.111617
    H   H39   0.569039  0.070996  0.218751  0.111620
    H   H40   0.070996  0.430961  0.218751  0.111620
    H   H41   0.930961  0.570996  0.281249  0.111621
    H   H42   0.429004  0.930961  0.281249  0.111620
    H   H43   0.069039  0.429004  0.281249  0.111619
    H   H44   0.570996  0.069039  0.281249  0.111623
    H   H45   0.930961  0.429004  0.718751  0.111609
    H   H46   0.429004  0.069039  0.718751  0.111608
    H   H47   0.069039  0.570996  0.718751  0.111610
    H   H48   0.570996  0.930961  0.718751  0.111634
    C   C81   0.500000  0.000000  0.713928  0.056571
    C   C82   0.000000  0.500000  0.713928  0.056513
    C   C83   0.500000  0.000000  0.286072  0.056544
    C   C84   0.000000  0.500000  0.286072  0.056535
    C   C85   0.000000  0.500000  0.213928  0.056540
    C   C86   0.500000  0.000000  0.213928  0.056538
    C   C87   0.000000  0.500000  0.786072  0.056560
    C   C88   0.500000  0.000000  0.786072  0.056718
    C   C89   0.716728  0.963336  0.477025  -0.093363
    C   C90   0.036664  0.716728  0.477025  -0.093354
    C   C91   0.283272  0.036664  0.477025  -0.093374
    C   C92   0.963336  0.283272  0.477025  -0.093337
    C   C93   0.716728  0.036664  0.522975  -0.093354
    C   C94   0.036664  0.283272  0.522975  -0.093336
    C   C95   0.283272  0.963336  0.522975  -0.093362
    C   C96   0.963336  0.716728  0.522975  -0.093339
    C   C97   0.216728  0.463336  0.977025  -0.093346
    C   C98   0.536664  0.216728  0.977025  -0.093353
    C   C99   0.783272  0.536664  0.977025  -0.093344
    C   C100  0.463336  0.783272  0.977025  -0.093331
    C   C101  0.216728  0.536664  0.022975  -0.093350
    C   C102  0.536664  0.783272  0.022975  -0.093344
    C   C103  0.783272  0.463336  0.022975  -0.093347
    C   C104  0.463336  0.216728  0.022975  -0.093349
    H   H49   0.691477  0.934190  0.459193  0.158427
    H   H50   0.065810  0.691477  0.459193  0.158424
    H   H51   0.308523  0.065810  0.459193  0.158430
    H   H52   0.934190  0.308523  0.459193  0.158422
    H   H53   0.691477  0.065810  0.540807  0.158430
    H   H54   0.065810  0.308523  0.540807  0.158426
    H   H55   0.308523  0.934190  0.540807  0.158415
    H   H56   0.934190  0.691477  0.540807  0.158410
    H   H57   0.191477  0.434190  0.959193  0.158418
    H   H58   0.565810  0.191477  0.959193  0.158420
    H   H59   0.808523  0.565810  0.959193  0.158417
    H   H60   0.434190  0.808523  0.959193  0.158413
    H   H61   0.191477  0.565810  0.040807  0.158420
    H   H62   0.565810  0.808523  0.040807  0.158419
    H   H63   0.808523  0.434190  0.040807  0.158420
    H   H64   0.434190  0.191477  0.040807  0.158420
    C   C105  0.780630  0.962838  0.476819  -0.102434
    C   C106  0.037162  0.780630  0.476819  -0.102394
    C   C107  0.219370  0.037162  0.476819  -0.102438
    C   C108  0.962838  0.219370  0.476819  -0.102427
    C   C109  0.780630  0.037162  0.523181  -0.102440
    C   C110  0.037162  0.219370  0.523181  -0.102427
    C   C111  0.219370  0.962838  0.523181  -0.102471
    C   C112  0.962838  0.780630  0.523181  -0.102435
    C   C113  0.280630  0.462838  0.976819  -0.102454
    C   C114  0.537162  0.280630  0.976819  -0.102450
    C   C115  0.719370  0.537162  0.976819  -0.102450
    C   C116  0.462838  0.719370  0.976819  -0.102463
    C   C117  0.280630  0.537162  0.023181  -0.102452
    C   C118  0.537162  0.719370  0.023181  -0.102456
    C   C119  0.719370  0.462838  0.023181  -0.102462
    C   C120  0.462838  0.280630  0.023181  -0.102466
    C   C121  0.813434  0.000000  0.500000  0.064719
    C   C122  0.000000  0.813434  0.500000  0.064698
    C   C123  0.186566  0.000000  0.500000  0.064735
    C   C124  0.000000  0.186566  0.500000  0.064715
    C   C125  0.313434  0.500000  0.000000  0.064746
    C   C126  0.500000  0.313434  0.000000  0.064751
    C   C127  0.686566  0.500000  0.000000  0.064754
    C   C128  0.500000  0.686566  0.000000  0.064756
    C   C129  0.684751  0.000000  0.500000  -0.030716
    C   C130  0.000000  0.684751  0.500000  -0.030778
    C   C131  0.315249  0.000000  0.500000  -0.030685
    C   C132  0.000000  0.315249  0.500000  -0.030792
    C   C133  0.184751  0.500000  0.000000  -0.030718
    C   C134  0.500000  0.184751  0.000000  -0.030700
    C   C135  0.815249  0.500000  0.000000  -0.030723
    C   C136  0.500000  0.815249  0.000000  -0.030732
    O   O33   0.013331  0.089163  0.470981  -0.593850
    O   O34   0.910837  0.013331  0.470981  -0.593860
    O   O35   0.986669  0.910837  0.470981  -0.593852
    O   O36   0.089163  0.986669  0.470981  -0.593858
    O   O37   0.013331  0.910837  0.529019  -0.593856
    O   O38   0.910837  0.986669  0.529019  -0.593852
    O   O39   0.986669  0.089163  0.529019  -0.593860
    O   O40   0.089163  0.013331  0.529019  -0.593867
    O   O41   0.513331  0.589163  0.970981  -0.593807
    O   O42   0.410837  0.513331  0.970981  -0.593815
    O   O43   0.486669  0.410837  0.970981  -0.593815
    O   O44   0.589163  0.486669  0.970981  -0.593811
    O   O45   0.513331  0.410837  0.029019  -0.593807
    O   O46   0.410837  0.486669  0.029019  -0.593804
    O   O47   0.486669  0.589163  0.029019  -0.593801
    O   O48   0.589163  0.513331  0.029019  -0.593799
    C   C137  0.000000  0.118404  0.500000  0.787275
    C   C138  0.881596  0.000000  0.500000  0.787305
    C   C139  0.000000  0.881596  0.500000  0.787296
    C   C140  0.118404  0.000000  0.500000  0.787287
    C   C141  0.500000  0.618404  0.000000  0.787195
    C   C142  0.381596  0.500000  0.000000  0.787207
    C   C143  0.500000  0.381596  0.000000  0.787207
    C   C144  0.618404  0.500000  0.000000  0.787195
    Cu  Cu9   0.000000  0.000000  0.465874  0.943207
    Cu  Cu10  0.000000  0.000000  0.534126  0.943176
    Cu  Cu11  0.500000  0.500000  0.965874  0.943088
    Cu  Cu12  0.500000  0.500000  0.034126  0.943243
    C   C145  0.811221  0.920188  0.452591  0.646509
    O   O49   0.787498  0.909449  0.424550  -0.520332
    O   O50   0.863253  0.886928  0.462571  -0.542545
    H   H65   0.876201  0.857833  0.443335  0.388265
    C   C146  0.079812  0.811221  0.452591  0.646489
    O   O51   0.090551  0.787498  0.424550  -0.520330
    O   O52   0.113072  0.863253  0.462571  -0.542547
    H   H66   0.142167  0.876201  0.443335  0.388265
    C   C147  0.188779  0.079812  0.452591  0.646528
    O   O53   0.212502  0.090551  0.424550  -0.520337
    O   O54   0.136747  0.113072  0.462571  -0.542569
    H   H67   0.123799  0.142167  0.443335  0.388273
    C   C148  0.920188  0.188779  0.452591  0.646507
    O   O55   0.909449  0.212502  0.424550  -0.520331
    O   O56   0.886928  0.136747  0.462571  -0.542551
    H   H68   0.857833  0.123799  0.443335  0.388264
    C   C149  0.811221  0.079812  0.547409  0.646540
    O   O57   0.787498  0.090551  0.575450  -0.520344
    O   O58   0.863253  0.113072  0.537429  -0.542598
    H   H69   0.876201  0.142167  0.556665  0.388289
    C   C150  0.079812  0.188779  0.547409  0.646531
    O   O59   0.090551  0.212502  0.575450  -0.520343
    O   O60   0.113072  0.136747  0.537429  -0.542585
    H   H70   0.142167  0.123799  0.556665  0.388279
    C   C151  0.188779  0.920188  0.547409  0.646574
    O   O61   0.212502  0.909449  0.575450  -0.520328
    O   O62   0.136747  0.886928  0.537429  -0.542603
    H   H71   0.123799  0.857833  0.556665  0.388271
    C   C152  0.920188  0.811221  0.547409  0.646545
    O   O63   0.909449  0.787498  0.575450  -0.520322
    O   O64   0.886928  0.863253  0.537429  -0.542600
    H   H72   0.857833  0.876201  0.556665  0.388271
    C   C153  0.311221  0.420188  0.952591  0.646527
    O   O65   0.287498  0.409449  0.924550  -0.520334
    O   O66   0.363253  0.386928  0.962571  -0.542576
    H   H73   0.376201  0.357833  0.943335  0.388269
    C   C154  0.579812  0.311221  0.952591  0.646534
    O   O67   0.590551  0.287498  0.924550  -0.520337
    O   O68   0.613072  0.363253  0.962571  -0.542583
    H   H74   0.642167  0.376201  0.943335  0.388272
    C   C155  0.688779  0.579812  0.952591  0.646529
    O   O69   0.712502  0.590551  0.924550  -0.520337
    O   O70   0.636747  0.613072  0.962571  -0.542579
    H   H75   0.623799  0.642167  0.943335  0.388271
    C   C156  0.420188  0.688779  0.952591  0.646527
    O   O71   0.409449  0.712502  0.924550  -0.520333
    O   O72   0.386928  0.636747  0.962571  -0.542575
    H   H76   0.357833  0.623799  0.943335  0.388270
    C   C157  0.311221  0.579812  0.047409  0.646552
    O   O73   0.287498  0.590551  0.075450  -0.520345
    O   O74   0.363253  0.613072  0.037429  -0.542607
    H   H77   0.376201  0.642167  0.056665  0.388282
    C   C158  0.579812  0.688779  0.047409  0.646553
    O   O75   0.590551  0.712502  0.075450  -0.520346
    O   O76   0.613072  0.636747  0.037429  -0.542604
    H   H78   0.642167  0.623799  0.056665  0.388282
    C   C159  0.688779  0.420188  0.047409  0.646550
    O   O77   0.712502  0.409449  0.075450  -0.520343
    O   O78   0.636747  0.386928  0.037429  -0.542600
    H   H79   0.623799  0.357833  0.056665  0.388281
    C   C160  0.420188  0.311221  0.047409  0.646560
    O   O79   0.409449  0.287498  0.075450  -0.520346
    O   O80   0.386928  0.363253  0.037429  -0.542606
    H   H80   0.357833  0.376201  0.056665  0.388282
