# Generated by REPEAT Assigner based on pymatgen
data_DB0-m2_o1_o3_f0_nbo.sym.71
_audit_creation_date              2022-05-24
_audit_creation_method            REPEAT_Assigner
_cell_length_a                    21.522244
_cell_length_b                    21.522244
_cell_length_c                    38.520875
_cell_angle_alpha                 90.000000
_cell_angle_beta                  90.000000
_cell_angle_gamma                 90.000000
_cell_volume                      17843.138252
_symmetry_space_group_name_H-M    P1
_symmetry_Int_Tables_number       1
loop_
    _symmetry_equiv_pos_site_id
    _symmetry_equiv_pos_as_xyz
    1  x,y,z
loop_
    _atom_site_type_symbol
    _atom_site_label
    _atom_site_fract_x
    _atom_site_fract_y
    _atom_site_fract_z
    _atom_type_partial_charge
    O   O1    0.588731  0.051495  0.490870  -0.605240
    O   O2    0.948504  0.588730  0.490869  -0.605218
    O   O3    0.411271  0.948504  0.490869  -0.605200
    O   O4    0.051495  0.411270  0.490870  -0.605224
    O   O5    0.588731  0.948505  0.509131  -0.605222
    O   O6    0.948505  0.411270  0.509131  -0.605227
    O   O7    0.411270  0.051495  0.509130  -0.605241
    O   O8    0.051495  0.588731  0.509130  -0.605216
    O   O9    0.088730  0.551495  0.990870  -0.605215
    O   O10   0.448505  0.088730  0.990869  -0.605231
    O   O11   0.911270  0.448505  0.990869  -0.605227
    O   O12   0.551495  0.911270  0.990869  -0.605237
    O   O13   0.088730  0.448505  0.009131  -0.605218
    O   O14   0.448505  0.911270  0.009131  -0.605239
    O   O15   0.911270  0.551495  0.009131  -0.605220
    O   O16   0.551495  0.088730  0.009130  -0.605224
    C   C1    0.617748  0.000000  0.500000  0.771857
    C   C2    0.999999  0.617748  0.500000  0.771830
    C   C3    0.382253  0.999999  0.500000  0.771838
    C   C4    0.000000  0.382253  0.500000  0.771832
    C   C5    0.117748  0.500000  0.000000  0.771801
    C   C6    0.500000  0.117748  0.000000  0.771852
    C   C7    0.882253  0.500000  0.000000  0.771829
    C   C8    0.500000  0.882253  0.000000  0.771885
    O   O17   0.516386  0.051477  0.549672  -0.438537
    O   O18   0.948523  0.516388  0.549672  -0.438542
    O   O19   0.483614  0.948522  0.549672  -0.438537
    O   O20   0.051477  0.483615  0.549672  -0.438525
    O   O21   0.516388  0.948523  0.450328  -0.438545
    O   O22   0.948522  0.483613  0.450328  -0.438538
    O   O23   0.483614  0.051477  0.450328  -0.438537
    O   O24   0.051477  0.516386  0.450328  -0.438521
    O   O25   0.016386  0.551477  0.049672  -0.438532
    O   O26   0.448523  0.016387  0.049672  -0.438565
    O   O27   0.983613  0.448522  0.049672  -0.438549
    O   O28   0.551477  0.983614  0.049672  -0.438558
    O   O29   0.016387  0.448523  0.950328  -0.438552
    O   O30   0.448523  0.983614  0.950328  -0.438558
    O   O31   0.983614  0.551477  0.950328  -0.438541
    O   O32   0.551477  0.016387  0.950328  -0.438544
    C   C9    0.500000  0.000000  0.565911  0.435630
    C   C10   0.000000  0.500001  0.565911  0.435592
    C   C11   0.500001  0.000000  0.434089  0.435587
    C   C12   0.999999  0.500000  0.434089  0.435584
    C   C13   0.000000  0.499999  0.065911  0.435624
    C   C14   0.500000  0.000000  0.065911  0.435656
    C   C15   0.000001  0.500000  0.934089  0.435649
    C   C16   0.500000  0.000000  0.934089  0.435684
    Cu  Cu1   0.500000  0.060875  0.500000  0.870786
    Cu  Cu2   0.939124  0.500000  0.500000  0.870844
    Cu  Cu3   0.500001  0.939124  0.500000  0.870939
    Cu  Cu4   0.060875  0.500000  0.500000  0.870891
    Cu  Cu5   0.000000  0.560875  0.000000  0.870900
    Cu  Cu6   0.439124  0.000000  0.000000  0.870874
    Cu  Cu7   0.000000  0.439124  0.000000  0.870849
    Cu  Cu8   0.560876  0.000000  0.000000  0.870884
    C   C17   0.555071  0.994297  0.878152  0.088906
    C   C18   0.005704  0.555072  0.878152  0.088866
    C   C19   0.444928  0.005703  0.878152  0.088907
    C   C20   0.994298  0.444929  0.878152  0.088939
    C   C21   0.555072  0.005704  0.121848  0.088879
    C   C22   0.005703  0.444928  0.121848  0.088861
    C   C23   0.444929  0.994297  0.121848  0.088882
    C   C24   0.994296  0.555070  0.121848  0.088856
    C   C25   0.055070  0.494296  0.378152  0.088861
    C   C26   0.505705  0.055071  0.378152  0.088800
    C   C27   0.944928  0.505702  0.378152  0.088983
    C   C28   0.494298  0.944929  0.378152  0.088941
    C   C29   0.055071  0.505705  0.621848  0.088832
    C   C30   0.505702  0.944928  0.621848  0.088918
    C   C31   0.944929  0.494299  0.621848  0.088981
    C   C32   0.494296  0.055071  0.621848  0.088885
    H   H1    0.598613  0.989454  0.891844  0.049454
    H   H2    0.010546  0.598614  0.891844  0.049471
    H   H3    0.401386  0.010545  0.891844  0.049459
    H   H4    0.989456  0.401387  0.891844  0.049451
    H   H5    0.598614  0.010546  0.108156  0.049462
    H   H6    0.010545  0.401386  0.108156  0.049466
    H   H7    0.401387  0.989455  0.108156  0.049462
    H   H8    0.989454  0.598613  0.108156  0.049463
    H   H9    0.098613  0.489453  0.391844  0.049455
    H   H10   0.510547  0.098614  0.391844  0.049468
    H   H11   0.901386  0.510544  0.391844  0.049429
    H   H12   0.489456  0.901386  0.391844  0.049441
    H   H13   0.098614  0.510547  0.608156  0.049465
    H   H14   0.510544  0.901386  0.608156  0.049454
    H   H15   0.901386  0.489456  0.608156  0.049426
    H   H16   0.489454  0.098613  0.608156  0.049459
    C   C33   0.555070  0.994008  0.842384  -0.315642
    C   C34   0.005993  0.555072  0.842384  -0.315664
    C   C35   0.444929  0.005992  0.842384  -0.315647
    C   C36   0.994009  0.444930  0.842384  -0.315698
    C   C37   0.555072  0.005993  0.157616  -0.315639
    C   C38   0.005991  0.444928  0.157616  -0.315629
    C   C39   0.444930  0.994008  0.157616  -0.315641
    C   C40   0.994007  0.555070  0.157616  -0.315619
    C   C41   0.055070  0.494006  0.342384  -0.315556
    C   C42   0.505994  0.055071  0.342384  -0.315510
    C   C43   0.944928  0.505991  0.342384  -0.315713
    C   C44   0.494009  0.944929  0.342384  -0.315684
    C   C45   0.055071  0.505994  0.657616  -0.315529
    C   C46   0.505991  0.944929  0.657616  -0.315685
    C   C47   0.944929  0.494010  0.657616  -0.315698
    C   C48   0.494007  0.055070  0.657616  -0.315671
    H   H17   0.598902  0.990417  0.828878  0.149117
    H   H18   0.009583  0.598903  0.828878  0.149134
    H   H19   0.401097  0.009582  0.828878  0.149116
    H   H20   0.990419  0.401098  0.828878  0.149131
    H   H21   0.598903  0.009583  0.171122  0.149122
    H   H22   0.009582  0.401096  0.171122  0.149121
    H   H23   0.401098  0.990418  0.171122  0.149121
    H   H24   0.990417  0.598901  0.171122  0.149123
    H   H25   0.098901  0.490416  0.328878  0.149114
    H   H26   0.509584  0.098902  0.328878  0.149107
    H   H27   0.901097  0.509581  0.328878  0.149155
    H   H28   0.490419  0.901098  0.328878  0.149148
    H   H29   0.098903  0.509584  0.671122  0.149105
    H   H30   0.509581  0.901097  0.671122  0.149127
    H   H31   0.901098  0.490420  0.671122  0.149151
    H   H32   0.490417  0.098902  0.671122  0.149135
    C   C49   0.499999  0.000000  0.824217  0.260570
    C   C50   0.000001  0.500001  0.824217  0.260616
    C   C51   0.500001  0.000000  0.175783  0.260568
    C   C52   0.999999  0.499999  0.175783  0.260552
    C   C53   0.999999  0.499998  0.324217  0.260350
    C   C54   0.500002  0.000000  0.324217  0.260321
    C   C55   0.000000  0.500002  0.675783  0.260326
    C   C56   0.499999  0.999999  0.675783  0.260610
    C   C57   0.499999  0.000000  0.896163  -0.069959
    C   C58   0.000001  0.500000  0.896163  -0.069922
    C   C59   0.500001  0.000000  0.103837  -0.069898
    C   C60   0.999999  0.499999  0.103837  -0.069867
    C   C61   0.999999  0.499999  0.396163  -0.069854
    C   C62   0.500002  0.000000  0.396163  -0.069802
    C   C63   0.000000  0.500002  0.603837  -0.069853
    C   C64   0.499999  0.000000  0.603837  -0.069905
    C   C65   0.460827  0.039132  0.767888  -0.101579
    C   C66   0.960869  0.460829  0.767888  -0.101579
    C   C67   0.539171  0.960867  0.767888  -0.101601
    C   C68   0.039133  0.539173  0.767888  -0.101567
    C   C69   0.460829  0.960868  0.232112  -0.101588
    C   C70   0.960867  0.539170  0.232112  -0.101578
    C   C71   0.539173  0.039132  0.232112  -0.101552
    C   C72   0.039131  0.460827  0.232112  -0.101555
    C   C73   0.960827  0.539131  0.267888  -0.101660
    C   C74   0.460869  0.960828  0.267888  -0.101649
    C   C75   0.039171  0.460866  0.267888  -0.101684
    C   C76   0.539134  0.039172  0.267888  -0.101684
    C   C77   0.960829  0.460869  0.732112  -0.101653
    C   C78   0.460867  0.039171  0.732112  -0.101588
    C   C79   0.039172  0.539134  0.732112  -0.101667
    C   C80   0.539131  0.960828  0.732112  -0.101557
    H   H33   0.430471  0.070984  0.781382  0.097495
    H   H34   0.929016  0.430473  0.781382  0.097494
    H   H35   0.569527  0.929015  0.781382  0.097497
    H   H36   0.070985  0.569529  0.781382  0.097489
    H   H37   0.430473  0.929016  0.218618  0.097495
    H   H38   0.929015  0.569527  0.218618  0.097488
    H   H39   0.569529  0.070985  0.218618  0.097489
    H   H40   0.070984  0.430471  0.218618  0.097486
    H   H41   0.930471  0.570983  0.281382  0.097523
    H   H42   0.429017  0.930472  0.281382  0.097519
    H   H43   0.069527  0.429014  0.281382  0.097515
    H   H44   0.570986  0.069528  0.281382  0.097514
    H   H45   0.930472  0.429017  0.718618  0.097517
    H   H46   0.429015  0.069528  0.718618  0.097485
    H   H47   0.069528  0.570986  0.718618  0.097511
    H   H48   0.570983  0.930471  0.718618  0.097483
    C   C81   0.499999  0.999999  0.713934  -0.032011
    C   C82   0.000000  0.500002  0.713934  -0.031766
    C   C83   0.500002  0.000000  0.286066  -0.031773
    C   C84   0.999999  0.499998  0.286066  -0.031771
    C   C85   0.999999  0.499999  0.213934  -0.031994
    C   C86   0.500001  0.000000  0.213934  -0.031999
    C   C87   0.000001  0.500001  0.786066  -0.032024
    C   C88   0.499999  0.000000  0.786066  -0.031978
    C   C89   0.717897  0.966527  0.475293  0.125802
    C   C90   0.033472  0.717897  0.475293  0.125828
    C   C91   0.282104  0.033472  0.475293  0.125829
    C   C92   0.966527  0.282104  0.475293  0.125777
    C   C93   0.717897  0.033473  0.524707  0.125828
    C   C94   0.033472  0.282104  0.524707  0.125841
    C   C95   0.282104  0.966527  0.524707  0.125847
    C   C96   0.966527  0.717897  0.524707  0.125780
    C   C97   0.217897  0.466527  0.975293  0.125806
    C   C98   0.533473  0.217897  0.975293  0.125857
    C   C99   0.782104  0.533473  0.975293  0.125849
    C   C100  0.466527  0.782104  0.975293  0.125877
    C   C101  0.217897  0.533472  0.024707  0.125823
    C   C102  0.533473  0.782104  0.024707  0.125849
    C   C103  0.782104  0.466527  0.024707  0.125814
    C   C104  0.466527  0.217897  0.024707  0.125812
    C   C105  0.781911  0.967486  0.474942  -0.208437
    C   C106  0.032515  0.781911  0.474942  -0.208437
    C   C107  0.218090  0.032514  0.474942  -0.208440
    C   C108  0.967486  0.218090  0.474942  -0.208400
    C   C109  0.781911  0.032515  0.525058  -0.208442
    C   C110  0.032514  0.218090  0.525058  -0.208439
    C   C111  0.218090  0.967486  0.525058  -0.208466
    C   C112  0.967486  0.781911  0.525058  -0.208403
    C   C113  0.281911  0.467486  0.974942  -0.208448
    C   C114  0.532514  0.281911  0.974942  -0.208465
    C   C115  0.718090  0.532514  0.974942  -0.208450
    C   C116  0.467486  0.718090  0.974942  -0.208453
    C   C117  0.281911  0.532514  0.025058  -0.208447
    C   C118  0.532514  0.718090  0.025058  -0.208429
    C   C119  0.718090  0.467486  0.025058  -0.208414
    C   C120  0.467486  0.281911  0.025058  -0.208424
    H   H49   0.806232  0.941269  0.455255  0.112401
    H   H50   0.058732  0.806232  0.455256  0.112437
    H   H51   0.193769  0.058731  0.455255  0.112396
    H   H52   0.941269  0.193769  0.455255  0.112390
    H   H53   0.806232  0.058731  0.544745  0.112419
    H   H54   0.058731  0.193769  0.544745  0.112371
    H   H55   0.193769  0.941269  0.544745  0.112400
    H   H56   0.941269  0.806232  0.544745  0.112430
    H   H57   0.306232  0.441269  0.955255  0.112405
    H   H58   0.558731  0.306232  0.955255  0.112410
    H   H59   0.693769  0.558731  0.955255  0.112408
    H   H60   0.441269  0.693769  0.955255  0.112411
    H   H61   0.306232  0.558731  0.044745  0.112401
    H   H62   0.558731  0.693769  0.044745  0.112402
    H   H63   0.693769  0.441269  0.044745  0.112398
    H   H64   0.441269  0.306232  0.044745  0.112401
    C   C121  0.814231  0.000000  0.500000  0.004704
    C   C122  0.000000  0.814231  0.500000  0.004662
    C   C123  0.185770  0.000000  0.500000  0.004776
    C   C124  0.000000  0.185770  0.500000  0.004736
    C   C125  0.314231  0.500000  0.000000  0.004751
    C   C126  0.500000  0.314231  0.000000  0.004744
    C   C127  0.685769  0.500000  0.000000  0.004709
    C   C128  0.500000  0.685770  0.000000  0.004719
    C   C129  0.685583  0.000000  0.500000  -0.202610
    C   C130  0.999999  0.685583  0.500000  -0.202588
    C   C131  0.314418  0.999999  0.500000  -0.202655
    C   C132  0.999999  0.314418  0.500001  -0.202622
    C   C133  0.185583  0.499999  0.000000  -0.202605
    C   C134  0.500000  0.185583  0.000000  -0.202643
    C   C135  0.814417  0.500000  0.000000  -0.202614
    C   C136  0.500000  0.814417  0.000000  -0.202672
    O   O33   0.981714  0.088580  0.471580  -0.572720
    O   O34   0.911421  0.981713  0.471580  -0.572757
    O   O35   0.018288  0.911421  0.471580  -0.572770
    O   O36   0.088580  0.018287  0.471580  -0.572683
    O   O37   0.981714  0.911421  0.528421  -0.572786
    O   O38   0.911421  0.018287  0.528421  -0.572755
    O   O39   0.018287  0.088580  0.528421  -0.572609
    O   O40   0.088580  0.981714  0.528421  -0.572635
    O   O41   0.481713  0.588579  0.971579  -0.572608
    O   O42   0.411421  0.481713  0.971579  -0.572603
    O   O43   0.518287  0.411421  0.971579  -0.572602
    O   O44   0.588579  0.518287  0.971579  -0.572610
    O   O45   0.481713  0.411421  0.028420  -0.572704
    O   O46   0.411421  0.518287  0.028420  -0.572699
    O   O47   0.518287  0.588579  0.028420  -0.572706
    O   O48   0.588579  0.481713  0.028420  -0.572709
    C   C137  0.000000  0.117754  0.500000  0.693164
    C   C138  0.882247  0.000000  0.500000  0.693322
    C   C139  0.000001  0.882247  0.500000  0.693334
    C   C140  0.117754  0.000001  0.500000  0.693125
    C   C141  0.500000  0.617753  0.000000  0.693186
    C   C142  0.382247  0.500000  0.000000  0.693167
    C   C143  0.500000  0.382247  0.000000  0.693171
    C   C144  0.617753  0.500000  0.000000  0.693195
    Cu  Cu9   0.000001  0.000000  0.466250  0.905685
    Cu  Cu10  0.000000  0.000000  0.533751  0.905459
    Cu  Cu11  0.500000  0.500000  0.966249  0.905213
    Cu  Cu12  0.500000  0.500000  0.033750  0.905668
    C   C145  0.685320  0.930754  0.448798  0.162355
    C   C146  0.677075  0.955328  0.416062  -0.199082
    C   C147  0.650519  0.919770  0.390254  -0.008308
    C   C148  0.632451  0.859546  0.397149  -0.017787
    Br  Br1   0.598181  0.809327  0.361181  -0.075292
    C   C149  0.640265  0.835155  0.429940  -0.079299
    C   C150  0.666973  0.870631  0.455706  -0.153622
    H   H65   0.692131  0.002198  0.410525  0.106935
    H   H66   0.644422  0.938897  0.364532  0.079649
    H   H67   0.626339  0.787872  0.435302  0.101403
    H   H68   0.674360  0.851037  0.481209  0.109456
    C   C151  0.069245  0.685319  0.448798  0.162364
    C   C152  0.044670  0.677071  0.416062  -0.199196
    C   C153  0.080228  0.650515  0.390255  -0.008083
    C   C154  0.140452  0.632450  0.397149  -0.017871
    Br  Br2   0.190671  0.598180  0.361180  -0.075294
    C   C155  0.164846  0.640268  0.429939  -0.079317
    C   C156  0.129369  0.666976  0.455705  -0.153645
    H   H69   0.997798  0.692124  0.410526  0.106956
    H   H70   0.061099  0.644415  0.364532  0.079555
    H   H71   0.212129  0.626344  0.435300  0.101444
    H   H72   0.148965  0.674366  0.481207  0.109452
    C   C157  0.314681  0.069245  0.448798  0.162416
    C   C158  0.322930  0.044670  0.416062  -0.199233
    C   C159  0.349485  0.080228  0.390255  -0.008050
    C   C160  0.367550  0.140452  0.397149  -0.017892
    Br  Br3   0.401821  0.190672  0.361180  -0.075293
    C   C161  0.359733  0.164846  0.429939  -0.079313
    C   C162  0.333025  0.129369  0.455705  -0.153639
    H   H73   0.307876  0.997798  0.410526  0.106964
    H   H74   0.355585  0.061099  0.364532  0.079548
    H   H75   0.373657  0.212129  0.435300  0.101444
    H   H76   0.325635  0.148965  0.481207  0.109449
    C   C163  0.930754  0.314681  0.448798  0.162316
    C   C164  0.955327  0.322925  0.416062  -0.199021
    C   C165  0.919768  0.349480  0.390254  -0.008367
    C   C166  0.859546  0.367550  0.397150  -0.017755
    Br  Br4   0.809325  0.401820  0.361181  -0.075307
    C   C167  0.835155  0.359737  0.429941  -0.079331
    C   C168  0.870631  0.333030  0.455707  -0.153579
    H   H77   0.002197  0.307868  0.410525  0.106926
    H   H78   0.938895  0.355577  0.364531  0.079663
    H   H79   0.787872  0.373664  0.435303  0.101410
    H   H80   0.851037  0.325643  0.481210  0.109454
    C   C169  0.685319  0.069246  0.551202  0.162307
    C   C170  0.677072  0.044671  0.583938  -0.199158
    C   C171  0.650517  0.080229  0.609746  -0.008085
    C   C172  0.632450  0.140453  0.602851  -0.017869
    Br  Br5   0.598179  0.190673  0.638820  -0.075287
    C   C173  0.640266  0.164846  0.570061  -0.079315
    C   C174  0.666974  0.129369  0.544294  -0.153600
    H   H81   0.692127  0.997800  0.589475  0.106961
    H   H82   0.644418  0.061101  0.635468  0.079543
    H   H83   0.626341  0.212129  0.564699  0.101419
    H   H84   0.674363  0.148964  0.518792  0.109456
    C   C175  0.069245  0.314682  0.551203  0.162376
    C   C176  0.044671  0.322929  0.583938  -0.199172
    C   C177  0.080229  0.349485  0.609746  -0.008124
    C   C178  0.140453  0.367551  0.602851  -0.017860
    Br  Br6   0.190672  0.401821  0.638820  -0.075290
    C   C179  0.164846  0.359734  0.570061  -0.079306
    C   C180  0.129369  0.333027  0.544295  -0.153603
    H   H85   0.997800  0.307875  0.589475  0.106954
    H   H86   0.061101  0.355584  0.635468  0.079570
    H   H87   0.212129  0.373659  0.564700  0.101415
    H   H88   0.148964  0.325637  0.518793  0.109446
    C   C181  0.314681  0.930754  0.551202  0.162336
    C   C182  0.322924  0.955326  0.583939  -0.199093
    C   C183  0.349480  0.919768  0.609746  -0.008256
    C   C184  0.367551  0.859545  0.602851  -0.017821
    Br  Br7   0.401821  0.809325  0.638819  -0.075277
    C   C185  0.359739  0.835155  0.570059  -0.079295
    C   C186  0.333031  0.870632  0.544293  -0.153616
    H   H89   0.307867  0.002196  0.589476  0.106937
    H   H90   0.355576  0.938894  0.635469  0.079623
    H   H91   0.373667  0.787873  0.564697  0.101404
    H   H92   0.325645  0.851038  0.518790  0.109455
    C   C187  0.930754  0.685320  0.551202  0.162276
    C   C188  0.955327  0.677076  0.583939  -0.199038
    C   C189  0.919768  0.650520  0.609746  -0.008316
    C   C190  0.859546  0.632450  0.602851  -0.017785
    Br  Br8   0.809326  0.598180  0.638819  -0.075287
    C   C191  0.835155  0.640263  0.570059  -0.079315
    C   C192  0.870632  0.666971  0.544293  -0.153598
    H   H93   0.002196  0.692133  0.589476  0.106936
    H   H94   0.938895  0.644424  0.635469  0.079645
    H   H95   0.787873  0.626335  0.564698  0.101408
    H   H96   0.851037  0.674357  0.518791  0.109460
    C   C193  0.185319  0.430754  0.948798  0.162362
    C   C194  0.177075  0.455327  0.916062  -0.199086
    C   C195  0.150519  0.419769  0.890254  -0.008263
    C   C196  0.132450  0.359546  0.897149  -0.017821
    Br  Br9   0.098179  0.309326  0.861181  -0.075291
    C   C197  0.140263  0.335155  0.929940  -0.079272
    C   C198  0.166971  0.370631  0.955706  -0.153651
    H   H97   0.192132  0.502197  0.910525  0.106934
    H   H98   0.144422  0.438896  0.864531  0.079629
    H   H99   0.126336  0.287872  0.935302  0.101400
    H   H100  0.174358  0.351037  0.981209  0.109462
    C   C199  0.569246  0.185319  0.948798  0.162335
    C   C200  0.544671  0.177073  0.916062  -0.199197
    C   C201  0.580230  0.150517  0.890254  -0.008036
    C   C202  0.640453  0.132450  0.897149  -0.017920
    Br  Br10  0.690673  0.098179  0.861180  -0.075278
    C   C203  0.664845  0.140265  0.929940  -0.079254
    C   C204  0.629369  0.166973  0.955706  -0.153636
    H   H101  0.497801  0.192128  0.910525  0.106970
    H   H102  0.561102  0.144419  0.864531  0.079532
    H   H103  0.712129  0.126340  0.935301  0.101400
    H   H104  0.648964  0.174362  0.981208  0.109460
    C   C205  0.814681  0.569246  0.948798  0.162323
    C   C206  0.822927  0.544672  0.916062  -0.199186
    C   C207  0.849483  0.580230  0.890254  -0.008068
    C   C208  0.867551  0.640454  0.897149  -0.017884
    Br  Br11  0.901821  0.690674  0.861181  -0.075278
    C   C209  0.859736  0.664846  0.929940  -0.079281
    C   C210  0.833028  0.629369  0.955706  -0.153627
    H   H105  0.807872  0.497801  0.910525  0.106965
    H   H106  0.855581  0.561103  0.864531  0.079540
    H   H107  0.873661  0.712129  0.935301  0.101408
    H   H108  0.825639  0.648964  0.981208  0.109460
    C   C211  0.430754  0.814681  0.948798  0.162303
    C   C212  0.455328  0.822926  0.916062  -0.199198
    C   C213  0.419769  0.849482  0.890254  -0.008035
    C   C214  0.359546  0.867550  0.897149  -0.017898
    Br  Br12  0.309326  0.901821  0.861181  -0.075277
    C   C215  0.335155  0.859736  0.929940  -0.079272
    C   C216  0.370631  0.833029  0.955706  -0.153622
    H   H109  0.502198  0.807870  0.910525  0.106970
    H   H110  0.438896  0.855579  0.864531  0.079525
    H   H111  0.287872  0.873663  0.935302  0.101403
    H   H112  0.351037  0.825641  0.981209  0.109456
    C   C217  0.185319  0.569245  0.051202  0.162394
    C   C218  0.177071  0.544670  0.083938  -0.199225
    C   C219  0.150516  0.580228  0.109745  -0.008026
    C   C220  0.132450  0.640452  0.102851  -0.017892
    Br  Br13  0.098180  0.690672  0.138820  -0.075288
    C   C221  0.140267  0.664845  0.070061  -0.079320
    C   C222  0.166975  0.629369  0.044295  -0.153627
    H   H113  0.192125  0.497799  0.089474  0.106967
    H   H114  0.144416  0.561100  0.135468  0.079521
    H   H115  0.126343  0.712129  0.064700  0.101440
    H   H116  0.174365  0.648965  0.018793  0.109445
    C   C223  0.569246  0.814681  0.051202  0.162325
    C   C224  0.544671  0.822927  0.083938  -0.199201
    C   C225  0.580230  0.849483  0.109746  -0.008060
    C   C226  0.640453  0.867550  0.102851  -0.017882
    Br  Br14  0.690673  0.901820  0.138819  -0.075284
    C   C227  0.664846  0.859735  0.070060  -0.079283
    C   C228  0.629369  0.833027  0.044294  -0.153624
    H   H117  0.497801  0.807872  0.089475  0.106972
    H   H118  0.561102  0.855581  0.135468  0.079537
    H   H119  0.712129  0.873660  0.064699  0.101411
    H   H120  0.648964  0.825639  0.018792  0.109460
    C   C229  0.814681  0.430754  0.051202  0.162340
    C   C230  0.822926  0.455328  0.083938  -0.199199
    C   C231  0.849482  0.419770  0.109746  -0.008064
    C   C232  0.867550  0.359546  0.102851  -0.017882
    Br  Br15  0.901820  0.309326  0.138819  -0.075277
    C   C233  0.859735  0.335155  0.070060  -0.079291
    C   C234  0.833028  0.370631  0.044294  -0.153614
    H   H121  0.807870  0.502198  0.089475  0.106968
    H   H122  0.855579  0.438897  0.135469  0.079538
    H   H123  0.873662  0.287872  0.064698  0.101408
    H   H124  0.825640  0.351037  0.018791  0.109455
    C   C235  0.430754  0.185319  0.051202  0.162363
    C   C236  0.455328  0.177074  0.083938  -0.199204
    C   C237  0.419770  0.150518  0.109746  -0.008060
    C   C238  0.359547  0.132450  0.102851  -0.017884
    Br  Br16  0.309327  0.098180  0.138819  -0.075281
    C   C239  0.335155  0.140265  0.070060  -0.079273
    C   C240  0.370631  0.166973  0.044294  -0.153641
    H   H125  0.502199  0.192129  0.089475  0.106965
    H   H126  0.438898  0.144420  0.135468  0.079536
    H   H127  0.287872  0.126339  0.064699  0.101404
    H   H128  0.351036  0.174361  0.018791  0.109460
