# Generated by REPEAT Assigner based on pymatgen
data_DB0-m2_o1_o2_f0_pcu.sym.11_sqe
_audit_creation_date              2022-05-24
_audit_creation_method            REPEAT_Assigner
_cell_length_a                    10.877151
_cell_length_b                    9.483530
_cell_length_c                    15.088541
_cell_angle_alpha                 90.000000
_cell_angle_beta                  90.005984
_cell_angle_gamma                 90.000000
_cell_volume                      1556.440133
_symmetry_space_group_name_H-M    P1
_symmetry_Int_Tables_number       1
loop_
    _symmetry_equiv_pos_site_id
    _symmetry_equiv_pos_as_xyz
    1  x,y,z
loop_
    _atom_site_type_symbol
    _atom_site_label
    _atom_site_fract_x
    _atom_site_fract_y
    _atom_site_fract_z
    _atom_type_partial_charge
    O   O1   0.319606  0.618946  0.498952  -0.632367
    O   O2   0.677711  0.379024  0.496266  -0.631877
    O   O3   0.676850  0.621574  0.505446  -0.570038
    O   O4   0.320369  0.376922  0.493907  -0.597641
    N   N1   0.496935  0.852080  0.499800  -0.023661
    N   N2   0.499885  0.146047  0.497193  0.084715
    C   C1   0.261913  0.497837  0.497638  0.802930
    C   C2   0.735106  0.500360  0.500926  0.735283
    O   O5   0.507937  0.621095  0.370377  -0.614698
    O   O6   0.493431  0.377479  0.626916  -0.664694
    O   O7   0.497423  0.619686  0.627764  -0.527356
    O   O8   0.497774  0.378955  0.369232  -0.565627
    C   C3   0.507883  0.500247  0.328043  0.779120
    C   C4   0.495430  0.498673  0.668822  0.791043
    Cu  Cu1  0.498197  0.640509  0.499083  0.820414
    Cu  Cu2  0.499142  0.357710  0.497998  0.835864
    C   C5   0.429063  0.071675  0.440043  -0.027789
    C   C6   0.566362  0.926244  0.557861  0.082000
    C   C7   0.565453  0.072223  0.557786  -0.102864
    C   C8   0.428450  0.925545  0.440861  0.080113
    C   C9   0.061121  0.373503  0.500408  -0.051326
    C   C10  0.935374  0.624675  0.504087  -0.087260
    C   C11  0.934351  0.373938  0.499186  -0.020196
    C   C12  0.062152  0.623877  0.505620  0.007993
    C   C13  0.522685  0.628594  0.093355  -0.268492
    C   C14  0.589325  0.413929  0.900498  -0.209579
    C   C15  0.439256  0.597138  0.905225  -0.143380
    C   C16  0.528254  0.377730  0.091977  -0.256364
    H   H1   0.524727  0.728724  0.059254  0.153988
    H   H2   0.654647  0.345515  0.933094  0.111863
    H   H3   0.381351  0.668729  0.942187  0.112260
    H   H4   0.530365  0.278546  0.056735  0.162042
    C   C17  0.523448  0.627084  0.184687  0.082362
    C   C18  0.582484  0.413071  0.809385  0.135343
    C   C19  0.431625  0.594887  0.813825  0.039419
    C   C20  0.527073  0.376529  0.183437  0.065663
    H   H5   0.529089  0.725994  0.219093  0.069647
    H   H6   0.645472  0.348536  0.772317  0.037193
    H   H7   0.369207  0.665775  0.780222  0.053583
    H   H8   0.534559  0.276857  0.217005  0.065530
    C   C21  0.518840  0.501113  0.230619  -0.258728
    C   C22  0.501116  0.500121  0.765762  -0.239416
    H   H9   0.107895  0.273812  0.502130  0.110355
    H   H10  0.888445  0.724632  0.504841  0.121498
    H   H11  0.886928  0.274075  0.496332  0.107939
    H   H12  0.109409  0.723068  0.511848  0.106799
    C   C23  0.522425  0.503839  0.046335  0.211700
    C   C24  0.517069  0.505209  0.949115  0.032435
    C   C25  0.870289  0.499785  0.501008  -0.121400
    C   C26  0.126396  0.498335  0.500880  -0.180485
    N   N3   0.350036  0.141195  0.378922  0.515378
    O   O9   0.233505  0.146258  0.397148  -0.272565
    O   O10  0.382191  0.144012  0.296114  -0.261043
    N   N4   0.639487  0.856555  0.622898  0.468413
    O   O11  0.594429  0.840819  0.702146  -0.249345
    O   O12  0.758286  0.860127  0.614109  -0.286865
    N   N5   0.628957  0.142189  0.627293  0.715163
    O   O13  0.744165  0.173884  0.616393  -0.302080
    O   O14  0.587520  0.126296  0.707477  -0.319716
    N   N6   0.347349  0.854963  0.381630  0.566585
    O   O15  0.374622  0.853705  0.297904  -0.279998
    O   O16  0.232145  0.846774  0.403386  -0.297786
