# Generated by REPEAT Assigner based on pymatgen
data_DB0-m2_o1_o3_f0_nbo.sym.26
_audit_creation_date              2022-05-24
_audit_creation_method            REPEAT_Assigner
_cell_length_a                    21.553302
_cell_length_b                    21.549903
_cell_length_c                    38.573158
_cell_angle_alpha                 90.000000
_cell_angle_beta                  90.000000
_cell_angle_gamma                 90.000000
_cell_volume                      17916.134668
_symmetry_space_group_name_H-M    P1
_symmetry_Int_Tables_number       1
loop_
    _symmetry_equiv_pos_site_id
    _symmetry_equiv_pos_as_xyz
    1  x,y,z
loop_
    _atom_site_type_symbol
    _atom_site_label
    _atom_site_fract_x
    _atom_site_fract_y
    _atom_site_fract_z
    _atom_type_partial_charge
    O   O1    0.588469  0.051182  0.509504  -0.550824
    O   O2    0.949022  0.588295  0.510026  -0.577364
    O   O3    0.411530  0.948818  0.509504  -0.550877
    O   O4    0.050977  0.411705  0.510026  -0.577328
    O   O5    0.588469  0.948818  0.490496  -0.550883
    O   O6    0.949022  0.411705  0.489974  -0.577372
    O   O7    0.411530  0.051182  0.490496  -0.550877
    O   O8    0.050977  0.588295  0.489974  -0.577316
    O   O9    0.088469  0.551182  0.009504  -0.550837
    O   O10   0.449022  0.088295  0.010026  -0.577339
    O   O11   0.911530  0.448818  0.009504  -0.550896
    O   O12   0.550977  0.911705  0.010026  -0.577310
    O   O13   0.088469  0.448818  0.990496  -0.550876
    O   O14   0.449022  0.911705  0.989974  -0.577339
    O   O15   0.911530  0.551182  0.990496  -0.550910
    O   O16   0.550977  0.088295  0.989974  -0.577309
    C   C1    0.617641  0.000000  0.500000  0.599160
    C   C2    0.000000  0.617284  0.500000  0.668865
    C   C3    0.382359  0.000000  0.500000  0.599211
    C   C4    0.000000  0.382716  0.500000  0.668809
    C   C5    0.117641  0.500000  0.000000  0.599122
    C   C6    0.500000  0.117284  0.000000  0.668832
    C   C7    0.882359  0.500000  0.000000  0.599190
    C   C8    0.500000  0.882715  0.000000  0.668808
    O   O17   0.483043  0.051207  0.549545  -0.584417
    O   O18   0.949009  0.482195  0.549447  -0.607061
    O   O19   0.516956  0.948793  0.549545  -0.584420
    O   O20   0.050991  0.517805  0.549447  -0.607027
    O   O21   0.483043  0.948793  0.450455  -0.584451
    O   O22   0.949009  0.517805  0.450553  -0.607071
    O   O23   0.516956  0.051207  0.450455  -0.584461
    O   O24   0.050991  0.482195  0.450553  -0.607039
    O   O25   0.983043  0.551207  0.049545  -0.584468
    O   O26   0.449009  0.982195  0.049447  -0.607050
    O   O27   0.016956  0.448793  0.049545  -0.584462
    O   O28   0.550991  0.017805  0.049447  -0.607036
    O   O29   0.983043  0.448793  0.950455  -0.584466
    O   O30   0.449009  0.017805  0.950553  -0.607041
    O   O31   0.016956  0.551207  0.950455  -0.584479
    O   O32   0.550991  0.982195  0.950553  -0.607017
    C   C9    0.500000  0.000000  0.565830  0.653599
    C   C10   0.000000  0.500000  0.565727  0.705974
    C   C11   0.500000  0.000000  0.434170  0.653668
    C   C12   0.000000  0.500000  0.434273  0.706029
    C   C13   0.000000  0.500000  0.065830  0.653663
    C   C14   0.500000  0.000000  0.065727  0.705962
    C   C15   0.000000  0.500000  0.934170  0.653760
    C   C16   0.500000  0.000000  0.934273  0.706019
    Cu  Cu1   0.500000  0.060644  0.500000  0.938118
    Cu  Cu2   0.939492  0.500000  0.500000  0.960486
    Cu  Cu3   0.500000  0.939356  0.500000  0.938095
    Cu  Cu4   0.060507  0.500000  0.500000  0.960486
    Cu  Cu5   0.000000  0.560644  0.000000  0.938085
    Cu  Cu6   0.439492  0.000000  0.000000  0.960423
    Cu  Cu7   0.000000  0.439356  0.000000  0.938119
    Cu  Cu8   0.560507  0.000000  0.000000  0.960440
    C   C17   0.554576  0.991003  0.878208  -0.086624
    C   C18   0.008254  0.554702  0.878101  -0.090060
    C   C19   0.445423  0.008997  0.878208  -0.086644
    C   C20   0.991746  0.445298  0.878101  -0.090080
    C   C21   0.554576  0.008997  0.121792  -0.086647
    C   C22   0.008254  0.445298  0.121899  -0.090062
    C   C23   0.445423  0.991003  0.121792  -0.086630
    C   C24   0.991746  0.554702  0.121899  -0.090058
    C   C25   0.054576  0.491003  0.378208  -0.086673
    C   C26   0.508254  0.054702  0.378101  -0.090069
    C   C27   0.945423  0.508997  0.378208  -0.086690
    C   C28   0.491746  0.945298  0.378101  -0.090088
    C   C29   0.054576  0.508997  0.621792  -0.086620
    C   C30   0.508254  0.945298  0.621899  -0.090048
    C   C31   0.945423  0.491003  0.621792  -0.086609
    C   C32   0.491746  0.054702  0.621899  -0.090044
    H   H1    0.598024  0.984522  0.891697  0.120866
    H   H2    0.014149  0.598240  0.891591  0.120990
    H   H3    0.401975  0.015478  0.891697  0.120873
    H   H4    0.985851  0.401760  0.891591  0.120994
    H   H5    0.598024  0.015478  0.108303  0.120871
    H   H6    0.014149  0.401760  0.108409  0.120989
    H   H7    0.401975  0.984522  0.108303  0.120869
    H   H8    0.985851  0.598240  0.108409  0.120983
    H   H9    0.098024  0.484522  0.391697  0.120874
    H   H10   0.514149  0.098240  0.391591  0.120992
    H   H11   0.901975  0.515478  0.391697  0.120861
    H   H12   0.485851  0.901760  0.391591  0.120994
    H   H13   0.098024  0.515478  0.608303  0.120860
    H   H14   0.514149  0.901760  0.608409  0.120977
    H   H15   0.901975  0.484522  0.608303  0.120862
    H   H16   0.485851  0.098240  0.608409  0.120971
    C   C33   0.554626  0.991327  0.842477  -0.155105
    C   C34   0.007929  0.554748  0.842370  -0.153839
    C   C35   0.445374  0.008673  0.842477  -0.155106
    C   C36   0.992071  0.445252  0.842370  -0.153817
    C   C37   0.554626  0.008673  0.157523  -0.155112
    C   C38   0.007929  0.445252  0.157630  -0.153849
    C   C39   0.445374  0.991327  0.157523  -0.155133
    C   C40   0.992071  0.554748  0.157630  -0.153854
    C   C41   0.054626  0.491327  0.342477  -0.154993
    C   C42   0.507929  0.054748  0.342370  -0.153851
    C   C43   0.945374  0.508673  0.342477  -0.154845
    C   C44   0.492071  0.945252  0.342370  -0.153825
    C   C45   0.054626  0.508673  0.657523  -0.155118
    C   C46   0.507929  0.945252  0.657630  -0.153849
    C   C47   0.945374  0.491327  0.657523  -0.155140
    C   C48   0.492071  0.054748  0.657630  -0.153858
    H   H17   0.598311  0.986028  0.829080  0.113155
    H   H18   0.012631  0.598510  0.828975  0.111178
    H   H19   0.401689  0.013972  0.829080  0.113161
    H   H20   0.987369  0.401490  0.828975  0.111173
    H   H21   0.598311  0.013972  0.170920  0.113165
    H   H22   0.012631  0.401490  0.171025  0.111182
    H   H23   0.401689  0.986028  0.170920  0.113167
    H   H24   0.987369  0.598510  0.171025  0.111186
    H   H25   0.098311  0.486028  0.329080  0.113141
    H   H26   0.512631  0.098510  0.328975  0.111181
    H   H27   0.901689  0.513972  0.329080  0.113081
    H   H28   0.487369  0.901490  0.328975  0.111176
    H   H29   0.098311  0.513972  0.670920  0.113165
    H   H30   0.512631  0.901490  0.671025  0.111184
    H   H31   0.901689  0.486028  0.670920  0.113169
    H   H32   0.487369  0.098510  0.671025  0.111187
    C   C49   0.500000  0.000000  0.824283  0.096136
    C   C50   0.000000  0.500000  0.824173  0.092347
    C   C51   0.500000  0.000000  0.175717  0.096144
    C   C52   0.000000  0.500000  0.175827  0.092364
    C   C53   0.000000  0.500000  0.324283  0.095891
    C   C54   0.500000  0.000000  0.324173  0.092350
    C   C55   0.000000  0.500000  0.675717  0.096138
    C   C56   0.500000  0.000000  0.675827  0.092347
    C   C57   0.500000  0.000000  0.896285  -0.058760
    C   C58   0.000000  0.500000  0.896180  -0.030601
    C   C59   0.500000  0.000000  0.103715  -0.058706
    C   C60   0.000000  0.500000  0.103820  -0.030560
    C   C61   0.000000  0.500000  0.396285  -0.058750
    C   C62   0.500000  0.000000  0.396180  -0.030541
    C   C63   0.000000  0.500000  0.603715  -0.058729
    C   C64   0.500000  0.000000  0.603820  -0.030548
    C   C65   0.461284  0.039445  0.767921  -0.143951
    C   C66   0.961142  0.460694  0.767807  -0.133085
    C   C67   0.538716  0.960555  0.767921  -0.143938
    C   C68   0.038857  0.539306  0.767807  -0.133072
    C   C69   0.461284  0.960555  0.232079  -0.143914
    C   C70   0.961142  0.539306  0.232193  -0.133088
    C   C71   0.538716  0.039445  0.232079  -0.143926
    C   C72   0.038857  0.460694  0.232193  -0.133063
    C   C73   0.961284  0.539445  0.267921  -0.143922
    C   C74   0.461142  0.960694  0.267807  -0.133071
    C   C75   0.038716  0.460555  0.267921  -0.143929
    C   C76   0.538857  0.039306  0.267807  -0.133060
    C   C77   0.961284  0.460555  0.732079  -0.143906
    C   C78   0.461142  0.039306  0.732193  -0.133049
    C   C79   0.038716  0.539445  0.732079  -0.143914
    C   C80   0.538857  0.960694  0.732193  -0.133038
    H   H33   0.431318  0.071685  0.781310  0.112048
    H   H34   0.929354  0.430246  0.781191  0.112252
    H   H35   0.568682  0.928315  0.781309  0.112045
    H   H36   0.070646  0.569754  0.781191  0.112246
    H   H37   0.431318  0.928315  0.218691  0.112039
    H   H38   0.929353  0.569754  0.218809  0.112255
    H   H39   0.568682  0.071685  0.218690  0.112040
    H   H40   0.070646  0.430246  0.218809  0.112240
    H   H41   0.931318  0.571685  0.281310  0.112042
    H   H42   0.429354  0.930246  0.281191  0.112247
    H   H43   0.068682  0.428315  0.281309  0.112047
    H   H44   0.570646  0.069754  0.281191  0.112244
    H   H45   0.931318  0.428315  0.718691  0.112038
    H   H46   0.429353  0.069754  0.718809  0.112244
    H   H47   0.068682  0.571685  0.718690  0.112040
    H   H48   0.570646  0.930246  0.718809  0.112232
    C   C81   0.500000  0.000000  0.713989  0.066562
    C   C82   0.000000  0.500000  0.713876  0.070787
    C   C83   0.500000  0.000000  0.286011  0.066570
    C   C84   0.000000  0.500000  0.286124  0.070861
    C   C85   0.000000  0.500000  0.213989  0.066573
    C   C86   0.500000  0.000000  0.213876  0.070790
    C   C87   0.000000  0.500000  0.786011  0.066578
    C   C88   0.500000  0.000000  0.786124  0.070805
    C   C89   0.717976  0.949096  0.487949  -0.079575
    C   C90   0.030819  0.716976  0.474424  -0.115766
    C   C91   0.282024  0.050904  0.487949  -0.079613
    C   C92   0.969181  0.283024  0.474424  -0.116011
    C   C93   0.717976  0.050904  0.512051  -0.079596
    C   C94   0.030819  0.283024  0.525576  -0.116023
    C   C95   0.282024  0.949096  0.512051  -0.079584
    C   C96   0.969181  0.716976  0.525576  -0.115766
    C   C97   0.217976  0.449096  0.987949  -0.079600
    C   C98   0.530819  0.216976  0.974424  -0.115713
    C   C99   0.782024  0.550904  0.987949  -0.079605
    C   C100  0.469181  0.783024  0.974424  -0.115975
    C   C101  0.217976  0.550904  0.012051  -0.079594
    C   C102  0.530819  0.783024  0.025576  -0.115974
    C   C103  0.782024  0.449096  0.012051  -0.079578
    C   C104  0.469181  0.216976  0.025576  -0.115754
    H   H49   0.693514  0.909216  0.477898  0.122180
    H   H50   0.055243  0.691675  0.454455  0.129483
    H   H51   0.306486  0.090784  0.477898  0.122181
    H   H52   0.944757  0.308325  0.454455  0.129578
    H   H53   0.693514  0.090784  0.522102  0.122154
    H   H54   0.055243  0.308325  0.545545  0.129584
    H   H55   0.306486  0.909216  0.522102  0.122171
    H   H56   0.944757  0.691675  0.545545  0.129488
    H   H57   0.193514  0.409216  0.977898  0.122186
    H   H58   0.555243  0.191675  0.954455  0.129480
    H   H59   0.806486  0.590784  0.977898  0.122204
    H   H60   0.444757  0.808325  0.954455  0.129578
    H   H61   0.193514  0.590784  0.022102  0.122164
    H   H62   0.555243  0.808325  0.045545  0.129576
    H   H63   0.806486  0.409216  0.022102  0.122182
    H   H64   0.444757  0.191675  0.045545  0.129483
    C   C105  0.781947  0.949526  0.486988  -0.219325
    C   C106  0.031133  0.780977  0.474163  -0.216585
    C   C107  0.218053  0.050474  0.486988  -0.219307
    C   C108  0.968867  0.219023  0.474163  -0.216452
    C   C109  0.781947  0.050474  0.513012  -0.219295
    C   C110  0.031133  0.219023  0.525837  -0.216422
    C   C111  0.218053  0.949526  0.513012  -0.219311
    C   C112  0.968867  0.780977  0.525837  -0.216530
    C   C113  0.281947  0.449525  0.986988  -0.219353
    C   C114  0.531133  0.280977  0.974163  -0.216695
    C   C115  0.718053  0.550474  0.986988  -0.219330
    C   C116  0.468867  0.719023  0.974163  -0.216490
    C   C117  0.281947  0.550474  0.013012  -0.219345
    C   C118  0.531133  0.719023  0.025837  -0.216510
    C   C119  0.718053  0.449526  0.013012  -0.219361
    C   C120  0.468867  0.280977  0.025837  -0.216626
    C   C121  0.814371  0.000000  0.500000  0.104258
    C   C122  0.000000  0.813757  0.500000  0.485484
    C   C123  0.185629  0.000000  0.500000  0.104253
    C   C124  0.000000  0.186243  0.500000  0.485446
    C   C125  0.314371  0.500000  0.000000  0.104321
    C   C126  0.500000  0.313757  0.000000  0.485631
    C   C127  0.685629  0.500000  0.000000  0.104308
    C   C128  0.500000  0.686243  0.000000  0.485558
    C   C129  0.685672  0.000000  0.500000  0.027406
    C   C130  0.000000  0.684999  0.500000  -0.007099
    C   C131  0.314328  0.000000  0.500000  0.027398
    C   C132  0.000000  0.315001  0.500000  -0.006848
    C   C133  0.185672  0.500000  0.000000  0.027440
    C   C134  0.500000  0.184999  0.000000  -0.007095
    C   C135  0.814328  0.500000  0.000000  0.027406
    C   C136  0.500000  0.815001  0.000000  -0.006897
    O   O33   0.016450  0.088819  0.471408  -0.353527
    O   O34   0.911179  0.016462  0.471348  -0.584949
    O   O35   0.983550  0.911181  0.471408  -0.353538
    O   O36   0.088821  0.983538  0.471348  -0.584987
    O   O37   0.016450  0.911181  0.528592  -0.353513
    O   O38   0.911179  0.983538  0.528652  -0.584929
    O   O39   0.983550  0.088819  0.528592  -0.353500
    O   O40   0.088821  0.016462  0.528652  -0.584988
    O   O41   0.516450  0.588819  0.971408  -0.353481
    O   O42   0.411179  0.516462  0.971348  -0.584948
    O   O43   0.483550  0.411181  0.971408  -0.353493
    O   O44   0.588821  0.483538  0.971348  -0.585193
    O   O45   0.516450  0.411181  0.028592  -0.353544
    O   O46   0.411179  0.483538  0.028652  -0.584990
    O   O47   0.483550  0.588819  0.028592  -0.353474
    O   O48   0.588821  0.516462  0.028652  -0.585097
    C   C137  0.000000  0.118056  0.500000  0.212890
    C   C138  0.882151  0.000000  0.500000  0.718157
    C   C139  0.000000  0.881944  0.500000  0.212944
    C   C140  0.117849  0.000000  0.500000  0.718292
    C   C141  0.500000  0.618056  0.000000  0.212729
    C   C142  0.382151  0.500000  0.000000  0.718209
    C   C143  0.500000  0.381944  0.000000  0.212839
    C   C144  0.617849  0.500000  0.000000  0.718543
    Cu  Cu9   0.000000  0.000000  0.466140  0.889003
    Cu  Cu10  0.000000  0.000000  0.533860  0.889022
    Cu  Cu11  0.500000  0.500000  0.966140  0.889085
    Cu  Cu12  0.500000  0.500000  0.033860  0.889009
    C   C145  0.813615  0.895570  0.471995  0.861978
    O   O49   0.796964  0.843537  0.480232  -0.558094
    O   O50   0.853940  0.902958  0.445575  -0.510051
    C   C146  0.874981  0.852505  0.427287  0.466014
    C   C147  0.914873  0.874040  0.397254  -0.359495
    H   H65   0.834955  0.826249  0.416723  -0.017284
    H   H66   0.902549  0.821888  0.444497  -0.124736
    H   H67   0.886463  0.902732  0.379439  0.092988
    H   H68   0.932940  0.833054  0.383097  0.083239
    H   H69   0.954358  0.902019  0.406900  0.101364
    C   C148  0.066435  0.811814  0.446543  0.764839
    O   O51   0.098027  0.857373  0.452779  -0.544228
    O   O52   0.066825  0.787035  0.414482  -0.458441
    C   C149  0.098955  0.814753  0.388026  0.497949
    C   C150  0.089651  0.777738  0.355096  -0.367287
    H   H70   0.149119  0.816107  0.394417  -0.030328
    H   H71   0.081347  0.862594  0.384008  -0.054136
    H   H72   0.106927  0.729771  0.359003  0.095763
    H   H73   0.115591  0.799939  0.333590  0.080498
    H   H74   0.039533  0.776378  0.348626  0.092854
    C   C151  0.186385  0.104430  0.471995  0.862039
    O   O53   0.203036  0.156463  0.480232  -0.558101
    O   O54   0.146060  0.097042  0.445575  -0.510124
    C   C152  0.125019  0.147495  0.427287  0.466085
    C   C153  0.085127  0.125960  0.397254  -0.359494
    H   H75   0.165045  0.173751  0.416723  -0.017307
    H   H76   0.097451  0.178112  0.444497  -0.124753
    H   H77   0.113537  0.097268  0.379439  0.092985
    H   H78   0.067060  0.166946  0.383097  0.083242
    H   H79   0.045642  0.097981  0.406900  0.101363
    C   C154  0.933564  0.188186  0.446543  0.764821
    O   O55   0.901973  0.142627  0.452779  -0.544227
    O   O56   0.933175  0.212965  0.414482  -0.458462
    C   C155  0.901045  0.185247  0.388026  0.497839
    C   C156  0.910349  0.222262  0.355096  -0.367088
    H   H80   0.850880  0.183893  0.394417  -0.030299
    H   H81   0.918653  0.137405  0.384008  -0.054115
    H   H82   0.893073  0.270229  0.359003  0.095712
    H   H83   0.884409  0.200061  0.333590  0.080435
    H   H84   0.960467  0.223622  0.348626  0.092817
    C   C157  0.813615  0.104430  0.528005  0.862074
    O   O57   0.796964  0.156463  0.519768  -0.558113
    O   O58   0.853940  0.097042  0.554425  -0.510143
    C   C158  0.874981  0.147495  0.572713  0.466075
    C   C159  0.914873  0.125960  0.602746  -0.359477
    H   H85   0.834955  0.173751  0.583277  -0.017305
    H   H86   0.902549  0.178112  0.555503  -0.124752
    H   H87   0.886463  0.097268  0.620560  0.092984
    H   H88   0.932940  0.166946  0.616903  0.083239
    H   H89   0.954358  0.097981  0.593100  0.101357
    C   C160  0.066435  0.188186  0.553457  0.764777
    O   O59   0.098027  0.142627  0.547221  -0.544210
    O   O60   0.066825  0.212965  0.585518  -0.458453
    C   C161  0.098955  0.185247  0.611974  0.497851
    C   C162  0.089651  0.222262  0.644904  -0.367116
    H   H90   0.149119  0.183893  0.605583  -0.030305
    H   H91   0.081347  0.137405  0.615992  -0.054116
    H   H92   0.106927  0.270229  0.640997  0.095725
    H   H93   0.115591  0.200061  0.666410  0.080443
    H   H94   0.039533  0.223622  0.651374  0.092821
    C   C163  0.186385  0.895570  0.528005  0.862010
    O   O61   0.203036  0.843537  0.519768  -0.558092
    O   O62   0.146060  0.902958  0.554425  -0.510091
    C   C164  0.125019  0.852505  0.572713  0.466042
    C   C165  0.085127  0.874040  0.602746  -0.359511
    H   H95   0.165045  0.826249  0.583277  -0.017299
    H   H96   0.097451  0.821888  0.555503  -0.124736
    H   H97   0.113537  0.902732  0.620561  0.092992
    H   H98   0.067060  0.833054  0.616903  0.083243
    H   H99   0.045642  0.902019  0.593100  0.101382
    C   C166  0.933564  0.811814  0.553457  0.764693
    O   O63   0.901973  0.857373  0.547221  -0.544128
    O   O64   0.933175  0.787035  0.585518  -0.458409
    C   C167  0.901045  0.814753  0.611974  0.497974
    C   C168  0.910349  0.777738  0.644904  -0.367254
    H   H100  0.850880  0.816107  0.605583  -0.030349
    H   H101  0.918653  0.862594  0.615992  -0.054160
    H   H102  0.893073  0.729771  0.640997  0.095750
    H   H103  0.884409  0.799939  0.666410  0.080497
    H   H104  0.960467  0.776378  0.651374  0.092841
    C   C169  0.313615  0.395570  0.971995  0.862046
    O   O65   0.296964  0.343537  0.980232  -0.558105
    O   O66   0.353940  0.402958  0.945575  -0.510088
    C   C170  0.374981  0.352505  0.927287  0.466030
    C   C171  0.414873  0.374040  0.897254  -0.359484
    H   H105  0.334955  0.326249  0.916723  -0.017293
    H   H106  0.402548  0.321888  0.944497  -0.124730
    H   H107  0.386463  0.402732  0.879439  0.092991
    H   H108  0.432940  0.333054  0.883097  0.083239
    H   H109  0.454358  0.402019  0.906900  0.101354
    C   C172  0.566435  0.311814  0.946544  0.764865
    O   O67   0.598027  0.357373  0.952779  -0.544198
    O   O68   0.566825  0.287035  0.914482  -0.458445
    C   C173  0.598955  0.314753  0.888026  0.497815
    C   C174  0.589651  0.277738  0.855096  -0.367154
    H   H110  0.649119  0.316107  0.894417  -0.030298
    H   H111  0.581347  0.362594  0.884008  -0.054088
    H   H112  0.606927  0.229771  0.859003  0.095741
    H   H113  0.615591  0.299939  0.833590  0.080449
    H   H114  0.539533  0.276378  0.848626  0.092832
    C   C175  0.686385  0.604430  0.971995  0.861890
    O   O69   0.703036  0.656463  0.980232  -0.558075
    O   O70   0.646060  0.597042  0.945575  -0.509950
    C   C176  0.625019  0.647495  0.927287  0.465949
    C   C177  0.585127  0.625960  0.897254  -0.359439
    H   H115  0.665045  0.673751  0.916723  -0.017280
    H   H116  0.597451  0.678112  0.944497  -0.124718
    H   H117  0.613537  0.597268  0.879439  0.092969
    H   H118  0.567060  0.666946  0.883097  0.083237
    H   H119  0.545642  0.597981  0.906900  0.101358
    C   C178  0.433564  0.688186  0.946543  0.764806
    O   O71   0.401973  0.642627  0.952779  -0.544208
    O   O72   0.433175  0.712965  0.914482  -0.458452
    C   C179  0.401045  0.685247  0.888026  0.497824
    C   C180  0.410349  0.722262  0.855096  -0.367109
    H   H120  0.350880  0.683893  0.894417  -0.030297
    H   H121  0.418653  0.637405  0.884008  -0.054109
    H   H122  0.393073  0.770229  0.859003  0.095724
    H   H123  0.384409  0.700061  0.833590  0.080443
    H   H124  0.460467  0.723622  0.848626  0.092824
    C   C181  0.313615  0.604430  0.028005  0.862065
    O   O73   0.296964  0.656463  0.019768  -0.558111
    O   O74   0.353940  0.597042  0.054425  -0.510116
    C   C182  0.374981  0.647495  0.072713  0.466033
    C   C183  0.414873  0.625960  0.102746  -0.359444
    H   H125  0.334955  0.673751  0.083277  -0.017294
    H   H126  0.402549  0.678112  0.055503  -0.124738
    H   H127  0.386463  0.597268  0.120561  0.092977
    H   H128  0.432940  0.666946  0.116903  0.083236
    H   H129  0.454358  0.597981  0.093100  0.101345
    C   C184  0.566436  0.688186  0.053456  0.764803
    O   O75   0.598027  0.642627  0.047221  -0.544194
    O   O76   0.566825  0.712965  0.085518  -0.458463
    C   C185  0.598955  0.685247  0.111974  0.497831
    C   C186  0.589651  0.722262  0.144904  -0.367116
    H   H130  0.649119  0.683893  0.105583  -0.030306
    H   H131  0.581347  0.637405  0.115992  -0.054109
    H   H132  0.606927  0.770229  0.140997  0.095728
    H   H133  0.615591  0.700061  0.166410  0.080444
    H   H134  0.539533  0.723622  0.151374  0.092823
    C   C187  0.686385  0.395570  0.028005  0.862007
    O   O77   0.703036  0.343537  0.019768  -0.558087
    O   O78   0.646060  0.402958  0.054425  -0.510117
    C   C188  0.625019  0.352505  0.072713  0.466078
    C   C189  0.585127  0.374040  0.102746  -0.359449
    H   H135  0.665045  0.326249  0.083277  -0.017303
    H   H136  0.597451  0.321888  0.055503  -0.124760
    H   H137  0.613537  0.402732  0.120561  0.092981
    H   H138  0.567060  0.333054  0.116903  0.083224
    H   H139  0.545642  0.402019  0.093100  0.101351
    C   C190  0.433564  0.311814  0.053457  0.764828
    O   O79   0.401973  0.357373  0.047221  -0.544230
    O   O80   0.433175  0.287035  0.085518  -0.458424
    C   C191  0.401045  0.314753  0.111974  0.497924
    C   C192  0.410349  0.277738  0.144904  -0.367277
    H   H140  0.350880  0.316107  0.105583  -0.030323
    H   H141  0.418653  0.362594  0.115992  -0.054134
    H   H142  0.393073  0.229771  0.140997  0.095758
    H   H143  0.384409  0.299939  0.166410  0.080502
    H   H144  0.460467  0.276378  0.151374  0.092856
