# Generated by REPEAT Assigner based on pymatgen
data_DB0-m2_o1_o2_f0_pcu.sym.9_sqe
_audit_creation_date              2022-05-24
_audit_creation_method            REPEAT_Assigner
_cell_length_a                    10.853133
_cell_length_b                    9.414745
_cell_length_c                    15.110232
_cell_angle_alpha                 90.000000
_cell_angle_beta                  90.005962
_cell_angle_gamma                 90.000000
_cell_volume                      1543.955534
_symmetry_space_group_name_H-M    P1
_symmetry_Int_Tables_number       1
loop_
    _symmetry_equiv_pos_site_id
    _symmetry_equiv_pos_as_xyz
    1  x,y,z
loop_
    _atom_site_type_symbol
    _atom_site_label
    _atom_site_fract_x
    _atom_site_fract_y
    _atom_site_fract_z
    _atom_type_partial_charge
    O   O1   0.320781  0.621769  0.502423  -0.511611
    O   O2   0.679499  0.378054  0.495734  -0.536815
    O   O3   0.678720  0.622190  0.503864  -0.541787
    O   O4   0.321315  0.378006  0.497671  -0.547846
    N   N1   0.496997  0.854823  0.500415  -0.248976
    N   N2   0.500667  0.145508  0.499978  -0.287301
    C   C1   0.263002  0.499999  0.500366  0.540113
    C   C2   0.736985  0.499966  0.499585  0.563918
    O   O5   0.497029  0.621921  0.371554  -0.515382
    O   O6   0.505803  0.378472  0.628371  -0.585127
    O   O7   0.494470  0.621876  0.628703  -0.505771
    O   O8   0.503461  0.377730  0.371129  -0.572524
    C   C3   0.500594  0.500371  0.330070  0.586878
    C   C4   0.499881  0.499525  0.670339  0.588643
    Cu  Cu1  0.503503  0.642179  0.500032  0.833266
    Cu  Cu2  0.498839  0.358131  0.499698  0.987055
    C   C5   0.423920  0.072858  0.445988  0.267638
    C   C6   0.576105  0.927099  0.553665  0.273304
    C   C7   0.575833  0.073782  0.554701  0.276138
    C   C8   0.424199  0.926424  0.445067  0.297622
    C   C9   0.063245  0.372973  0.497606  -0.132981
    C   C10  0.936743  0.626796  0.502566  -0.129944
    C   C11  0.936015  0.373108  0.497661  -0.122783
    C   C12  0.063881  0.626212  0.502339  -0.129825
    C   C13  0.526390  0.622749  0.095063  -0.126642
    C   C14  0.536459  0.380517  0.905054  -0.142450
    C   C15  0.464143  0.620016  0.903976  -0.125522
    C   C16  0.473577  0.377317  0.095895  -0.141890
    H   H1   0.550648  0.718773  0.060252  0.110120
    H   H2   0.568002  0.285946  0.938669  0.111410
    H   H3   0.430551  0.714428  0.936847  0.110195
    H   H4   0.449031  0.280682  0.061971  0.111271
    C   C17  0.524811  0.623806  0.186419  -0.121894
    C   C18  0.534943  0.379504  0.814066  -0.118864
    C   C19  0.465094  0.619234  0.812871  -0.118752
    C   C20  0.474266  0.377359  0.187345  -0.127822
    H   H5   0.546268  0.721882  0.220528  0.102924
    H   H6   0.562173  0.284239  0.780096  0.127851
    H   H7   0.434661  0.712546  0.777617  0.102649
    H   H8   0.451607  0.279973  0.222265  0.130160
    C   C21  0.500163  0.500569  0.233017  0.015797
    C   C22  0.500391  0.499305  0.767315  0.007173
    H   H9   0.110654  0.271860  0.496993  0.121122
    H   H10  0.889981  0.727816  0.505753  0.126442
    H   H11  0.887738  0.272890  0.497133  0.119377
    H   H12  0.113423  0.725884  0.505368  0.118995
    C   C23  0.499817  0.499992  0.048808  0.076947
    C   C24  0.500150  0.500499  0.951155  0.075683
    C   C25  0.872298  0.500233  0.499287  0.040424
    C   C26  0.127831  0.499587  0.499472  0.061640
    F   F1   0.347157  0.143769  0.391098  -0.115270
    F   F2   0.652305  0.856679  0.609166  -0.126864
    F   F3   0.654379  0.143772  0.609318  -0.114867
    F   F4   0.346607  0.856034  0.389924  -0.135248
