# Generated by REPEAT Assigner based on pymatgen
data_DB0-m2_o1_o2_f0_pcu.sym.13_sqe
_audit_creation_date              2022-05-24
_audit_creation_method            REPEAT_Assigner
_cell_length_a                    10.888434
_cell_length_b                    9.557212
_cell_length_c                    15.203384
_cell_angle_alpha                 90.000000
_cell_angle_beta                  90.005945
_cell_angle_gamma                 90.000000
_cell_volume                      1582.110999
_symmetry_space_group_name_H-M    P1
_symmetry_Int_Tables_number       1
loop_
    _symmetry_equiv_pos_site_id
    _symmetry_equiv_pos_as_xyz
    1  x,y,z
loop_
    _atom_site_type_symbol
    _atom_site_label
    _atom_site_fract_x
    _atom_site_fract_y
    _atom_site_fract_z
    _atom_type_partial_charge
    O   O1   0.320919  0.619665  0.498600  -0.372138
    O   O2   0.678933  0.381786  0.503056  -0.504450
    O   O3   0.677816  0.621351  0.494908  -0.381442
    O   O4   0.321870  0.379967  0.501550  -0.496013
    N   N1   0.498231  0.851611  0.499892  -0.171749
    N   N2   0.501283  0.149595  0.499551  -0.649913
    C   C1   0.263317  0.500087  0.500451  0.340921
    C   C2   0.736505  0.501980  0.497798  0.345457
    O   O5   0.494562  0.620623  0.371753  -0.583304
    O   O6   0.502566  0.380526  0.627352  -0.594581
    O   O7   0.495944  0.619568  0.627571  -0.596440
    O   O8   0.506739  0.380767  0.371837  -0.521930
    C   C3   0.502111  0.500229  0.329963  0.790678
    C   C4   0.499200  0.499946  0.669711  0.878100
    Cu  Cu1  0.499059  0.640887  0.499740  0.656949
    Cu  Cu2  0.500977  0.360233  0.499257  1.000884
    C   C5   0.417094  0.074604  0.453541  0.579772
    C   C6   0.579598  0.927231  0.549712  0.084433
    C   C7   0.581802  0.072724  0.548119  0.609735
    C   C8   0.416145  0.929613  0.452613  0.144952
    C   C9   0.063022  0.378745  0.502237  -0.159641
    C   C10  0.936924  0.627760  0.499419  -0.171501
    C   C11  0.937121  0.379442  0.497498  -0.160046
    C   C12  0.064075  0.627371  0.500066  -0.156987
    C   C13  0.449985  0.603591  0.094167  -0.488830
    C   C14  0.481807  0.372613  0.904813  -0.553949
    C   C15  0.518905  0.617330  0.906811  -0.513291
    C   C16  0.553009  0.384634  0.095531  -0.596904
    H   H1   0.405336  0.687865  0.059285  0.138183
    H   H2   0.464278  0.275153  0.938607  0.147651
    H   H3   0.537293  0.713472  0.941943  0.133590
    H   H4   0.596377  0.298820  0.061231  0.164854
    C   C17  0.451215  0.606890  0.184620  0.484039
    C   C18  0.479917  0.374006  0.813905  0.628981
    C   C19  0.517678  0.620412  0.816138  0.564925
    C   C20  0.554691  0.386640  0.186477  0.672125
    C   C21  0.503243  0.498248  0.232449  -0.542443
    C   C22  0.498839  0.498421  0.767686  -0.606403
    H   H5   0.108336  0.279537  0.506637  0.119443
    H   H6   0.889022  0.726530  0.499321  0.124637
    H   H7   0.891479  0.280552  0.492774  0.113949
    H   H8   0.111736  0.726692  0.499928  0.125224
    C   C23  0.500966  0.493320  0.048771  0.325401
    C   C24  0.501098  0.493898  0.951963  0.318894
    C   C25  0.872200  0.503254  0.497724  0.158223
    C   C26  0.128273  0.502122  0.501217  0.148984
    N   N3   0.321556  0.139685  0.404259  -0.921616
    H   H9   0.247669  0.161158  0.444857  0.363484
    H   H10  0.350103  0.222358  0.365427  0.347442
    N   N4   0.674580  0.863575  0.601219  -0.595844
    H   H11  0.657922  0.760171  0.614557  0.293953
    H   H12  0.675033  0.910190  0.663226  0.266368
    N   N5   0.679869  0.135850  0.595496  -0.991945
    H   H13  0.751374  0.160066  0.553162  0.398510
    H   H14  0.652120  0.215122  0.637521  0.387247
    N   N6   0.321638  0.870001  0.398928  -0.622006
    H   H15  0.333287  0.765497  0.387377  0.294471
    H   H16  0.329405  0.914493  0.336571  0.254118
    N   N7   0.394578  0.722178  0.227195  -0.486610
    H   H17  0.438776  0.812813  0.205617  0.228607
    H   H18  0.303465  0.726552  0.206027  0.208846
    N   N8   0.454698  0.246096  0.769227  -0.624526
    H   H19  0.369441  0.209550  0.790664  0.246865
    H   H20  0.521547  0.173408  0.787561  0.237971
    N   N9   0.538269  0.751173  0.774253  -0.527854
    H   H21  0.469482  0.819380  0.795557  0.220431
    H   H22  0.622533  0.788743  0.797053  0.216700
    N   N10  0.614060  0.274943  0.231521  -0.706963
    H   H23  0.705047  0.271962  0.209927  0.263891
    H   H24  0.571396  0.182103  0.212101  0.269429
