# Generated by REPEAT Assigner based on pymatgen
data_DB0-m2_o1_o2_f0_nbo.sym.83
_audit_creation_date              2022-05-24
_audit_creation_method            REPEAT_Assigner
_cell_length_a                    21.510784
_cell_length_b                    21.510784
_cell_length_c                    30.027122
_cell_angle_alpha                 90.000000
_cell_angle_beta                  90.000000
_cell_angle_gamma                 90.000000
_cell_volume                      13893.965034
_symmetry_space_group_name_H-M    P1
_symmetry_Int_Tables_number       1
loop_
    _symmetry_equiv_pos_site_id
    _symmetry_equiv_pos_as_xyz
    1  x,y,z
loop_
    _atom_site_type_symbol
    _atom_site_label
    _atom_site_fract_x
    _atom_site_fract_y
    _atom_site_fract_z
    _atom_type_partial_charge
    O   O1    0.088559  0.448912  0.487313  -0.563681
    O   O2    0.448912  0.911441  0.487313  -0.563708
    O   O3    0.911441  0.551088  0.487313  -0.563709
    O   O4    0.551088  0.088559  0.487313  -0.563682
    O   O5    0.088559  0.551088  0.512687  -0.563742
    O   O6    0.448912  0.088559  0.512687  -0.563684
    O   O7    0.911441  0.448912  0.512687  -0.563675
    O   O8    0.551088  0.911441  0.512687  -0.563733
    O   O9    0.588559  0.948912  0.987313  -0.563683
    O   O10   0.948912  0.411441  0.987313  -0.563721
    O   O11   0.411441  0.051088  0.987313  -0.563703
    O   O12   0.051088  0.588559  0.987313  -0.563658
    O   O13   0.588559  0.051088  0.012687  -0.563713
    O   O14   0.948912  0.588559  0.012687  -0.563732
    O   O15   0.411441  0.948912  0.012687  -0.563674
    O   O16   0.051088  0.411441  0.012687  -0.563652
    C   C1    0.117754  0.500000  0.500000  0.658310
    C   C2    0.500000  0.882246  0.500000  0.658278
    C   C3    0.882246  0.500000  0.500000  0.658321
    C   C4    0.500000  0.117754  0.500000  0.658370
    C   C5    0.617754  0.000000  0.000000  0.658289
    C   C6    0.000000  0.382246  0.000000  0.658368
    C   C7    0.382246  0.000000  0.000000  0.658375
    C   C8    0.000000  0.617754  0.000000  0.658284
    O   O17   0.982264  0.448919  0.436598  -0.580452
    O   O18   0.448919  0.017736  0.436598  -0.580478
    O   O19   0.017736  0.551080  0.436598  -0.580410
    O   O20   0.551080  0.982264  0.436598  -0.580383
    O   O21   0.982264  0.551080  0.563402  -0.580327
    O   O22   0.448919  0.982264  0.563402  -0.580391
    O   O23   0.017736  0.448919  0.563402  -0.580369
    O   O24   0.551080  0.017736  0.563402  -0.580301
    O   O25   0.482264  0.948919  0.936598  -0.580466
    O   O26   0.948919  0.517736  0.936598  -0.580440
    O   O27   0.517736  0.051080  0.936598  -0.580416
    O   O28   0.051080  0.482264  0.936598  -0.580442
    O   O29   0.482264  0.051080  0.063402  -0.580357
    O   O30   0.948919  0.482264  0.063402  -0.580380
    O   O31   0.517736  0.948919  0.063402  -0.580389
    O   O32   0.051080  0.517736  0.063402  -0.580367
    C   C9    0.282279  0.546573  0.521589  -0.081740
    C   C10   0.546573  0.717721  0.521589  -0.081779
    C   C11   0.717721  0.453427  0.521589  -0.081953
    C   C12   0.453427  0.282279  0.521589  -0.081910
    C   C13   0.282279  0.453427  0.478411  -0.081819
    C   C14   0.546573  0.282279  0.478411  -0.081859
    C   C15   0.717721  0.546573  0.478411  -0.081931
    C   C16   0.453427  0.717721  0.478411  -0.081874
    C   C17   0.782279  0.046573  0.021589  -0.081910
    C   C18   0.046573  0.217721  0.021589  -0.081978
    C   C19   0.217721  0.953427  0.021589  -0.082076
    C   C20   0.953427  0.782279  0.021589  -0.081956
    C   C21   0.782279  0.953427  0.978411  -0.081889
    C   C22   0.046573  0.782279  0.978411  -0.081892
    C   C23   0.217721  0.046573  0.978411  -0.081991
    C   C24   0.953427  0.217721  0.978411  -0.081967
    C   C25   0.000000  0.500000  0.415664  0.652485
    C   C26   0.500000  0.000000  0.415664  0.652495
    C   C27   0.000000  0.500000  0.584336  0.652125
    C   C28   0.500000  0.000000  0.584336  0.652133
    C   C29   0.500000  0.000000  0.915664  0.652537
    C   C30   0.000000  0.500000  0.915664  0.652543
    C   C31   0.500000  0.000000  0.084336  0.652144
    C   C32   0.000000  0.500000  0.084336  0.652149
    Cu  Cu1   0.000000  0.439403  0.500000  0.942231
    Cu  Cu2   0.439403  0.000000  0.500000  0.942115
    Cu  Cu3   0.000000  0.560597  0.500000  0.942237
    Cu  Cu4   0.560597  0.000000  0.500000  0.942367
    Cu  Cu5   0.500000  0.939403  0.000000  0.942234
    Cu  Cu6   0.939403  0.500000  0.000000  0.942249
    Cu  Cu7   0.500000  0.060597  0.000000  0.942196
    Cu  Cu8   0.060597  0.500000  0.000000  0.942160
    C   C33   0.185845  0.500000  0.500000  -0.045423
    C   C34   0.500000  0.814155  0.500000  -0.045420
    C   C35   0.814155  0.500000  0.500000  -0.045639
    C   C36   0.500000  0.185845  0.500000  -0.045644
    C   C37   0.685845  0.000000  0.000000  -0.045483
    C   C38   0.000000  0.314155  0.000000  -0.045664
    C   C39   0.314155  0.000000  0.000000  -0.045684
    C   C40   0.000000  0.685845  0.000000  -0.045456
    C   C41   0.218212  0.546962  0.521232  -0.053472
    C   C42   0.546962  0.781788  0.521232  -0.053435
    C   C43   0.781788  0.453038  0.521232  -0.053233
    C   C44   0.453038  0.218212  0.521232  -0.053271
    C   C45   0.218212  0.453038  0.478768  -0.053422
    C   C46   0.546962  0.218212  0.478768  -0.053283
    C   C47   0.781788  0.546962  0.478768  -0.053250
    C   C48   0.453038  0.781788  0.478768  -0.053393
    C   C49   0.718212  0.046962  0.021232  -0.053350
    C   C50   0.046962  0.281788  0.021232  -0.053244
    C   C51   0.281788  0.953038  0.021232  -0.053198
    C   C52   0.953038  0.718212  0.021232  -0.053355
    C   C53   0.718212  0.953038  0.978768  -0.053352
    C   C54   0.046962  0.718212  0.978768  -0.053386
    C   C55   0.281788  0.046962  0.978768  -0.053220
    C   C56   0.953038  0.281788  0.978768  -0.053225
    C   C57   0.022943  0.550454  0.297707  -0.134106
    C   C58   0.550454  0.977057  0.297707  -0.134111
    C   C59   0.977057  0.449546  0.297707  -0.134132
    C   C60   0.449546  0.022943  0.297707  -0.134133
    C   C61   0.022943  0.449546  0.702293  -0.134060
    C   C62   0.550454  0.022943  0.702293  -0.134048
    C   C63   0.977057  0.550454  0.702293  -0.134047
    C   C64   0.449546  0.977057  0.702293  -0.134061
    C   C65   0.522943  0.050454  0.797707  -0.134104
    C   C66   0.050454  0.477057  0.797707  -0.134115
    C   C67   0.477057  0.949546  0.797707  -0.134132
    C   C68   0.949546  0.522943  0.797707  -0.134121
    C   C69   0.522943  0.949546  0.202293  -0.134059
    C   C70   0.050454  0.522943  0.202293  -0.134042
    C   C71   0.477057  0.050454  0.202293  -0.134046
    C   C72   0.949546  0.477057  0.202293  -0.134065
    H   H1    0.040057  0.590925  0.280272  0.112403
    H   H2    0.590925  0.959943  0.280272  0.112407
    H   H3    0.959943  0.409075  0.280272  0.112413
    H   H4    0.409075  0.040057  0.280272  0.112411
    H   H5    0.040057  0.409075  0.719728  0.112406
    H   H6    0.590925  0.040057  0.719728  0.112402
    H   H7    0.959943  0.590925  0.719728  0.112404
    H   H8    0.409075  0.959943  0.719728  0.112409
    H   H9    0.540057  0.090925  0.780272  0.112404
    H   H10   0.090925  0.459943  0.780272  0.112407
    H   H11   0.459943  0.909075  0.780272  0.112411
    H   H12   0.909075  0.540057  0.780272  0.112408
    H   H13   0.540057  0.909075  0.219728  0.112407
    H   H14   0.090925  0.540057  0.219728  0.112401
    H   H15   0.459943  0.090925  0.219728  0.112404
    H   H16   0.909075  0.459943  0.219728  0.112409
    C   C73   0.022698  0.550602  0.343609  -0.112083
    C   C74   0.550602  0.977302  0.343609  -0.112084
    C   C75   0.977302  0.449398  0.343609  -0.112067
    C   C76   0.449398  0.022698  0.343609  -0.112063
    C   C77   0.022698  0.449398  0.656391  -0.112219
    C   C78   0.550602  0.022698  0.656391  -0.112220
    C   C79   0.977302  0.550602  0.656391  -0.112223
    C   C80   0.449398  0.977302  0.656391  -0.112220
    C   C81   0.522698  0.050602  0.843609  -0.112081
    C   C82   0.050602  0.477302  0.843609  -0.112072
    C   C83   0.477302  0.949398  0.843609  -0.112063
    C   C84   0.949398  0.522698  0.843609  -0.112073
    C   C85   0.522698  0.949398  0.156391  -0.112236
    C   C86   0.050602  0.522698  0.156391  -0.112241
    C   C87   0.477302  0.050602  0.156391  -0.112235
    C   C88   0.949398  0.477302  0.156391  -0.112228
    H   H17   0.040631  0.590831  0.360896  0.126297
    H   H18   0.590831  0.959369  0.360896  0.126296
    H   H19   0.959369  0.409169  0.360896  0.126300
    H   H20   0.409169  0.040631  0.360896  0.126298
    H   H21   0.040631  0.409169  0.639104  0.126327
    H   H22   0.590831  0.040631  0.639104  0.126317
    H   H23   0.959369  0.590831  0.639104  0.126317
    H   H24   0.409169  0.959369  0.639104  0.126325
    H   H25   0.540631  0.090831  0.860896  0.126296
    H   H26   0.090831  0.459369  0.860896  0.126298
    H   H27   0.459369  0.909169  0.860896  0.126299
    H   H28   0.909169  0.540631  0.860896  0.126297
    H   H29   0.540631  0.909169  0.139104  0.126335
    H   H30   0.090831  0.540631  0.139104  0.126331
    H   H31   0.459369  0.090831  0.139104  0.126326
    H   H32   0.909169  0.459369  0.139104  0.126328
    C   C89   0.000000  0.500000  0.366845  -0.015263
    C   C90   0.500000  0.000000  0.366845  -0.015266
    C   C91   0.000000  0.500000  0.633155  -0.014884
    C   C92   0.500000  0.000000  0.633155  -0.014884
    C   C93   0.500000  0.000000  0.866845  -0.015292
    C   C94   0.000000  0.500000  0.866845  -0.015294
    C   C95   0.500000  0.000000  0.133155  -0.014867
    C   C96   0.000000  0.500000  0.133155  -0.014870
    H   H33   0.193971  0.584017  0.538215  0.131815
    H   H34   0.584017  0.806029  0.538215  0.131812
    H   H35   0.806029  0.415983  0.538215  0.131736
    H   H36   0.415983  0.193971  0.538215  0.131738
    H   H37   0.193971  0.415983  0.461785  0.131772
    H   H38   0.584017  0.193971  0.461785  0.131753
    H   H39   0.806029  0.584017  0.461785  0.131745
    H   H40   0.415983  0.806029  0.461785  0.131764
    H   H41   0.693971  0.084017  0.038215  0.131781
    H   H42   0.084017  0.306029  0.038215  0.131729
    H   H43   0.306029  0.915983  0.038215  0.131721
    H   H44   0.915983  0.693971  0.038215  0.131786
    H   H45   0.693971  0.915983  0.961785  0.131762
    H   H46   0.084017  0.693971  0.961785  0.131758
    H   H47   0.306029  0.084017  0.961785  0.131733
    H   H48   0.915983  0.306029  0.961785  0.131737
    C   C97   0.000000  0.500000  0.274446  0.091832
    C   C98   0.500000  0.000000  0.274446  0.091835
    C   C99   0.000000  0.500000  0.725554  0.091686
    C   C100  0.500000  0.000000  0.725554  0.091688
    C   C101  0.500000  0.000000  0.774446  0.091837
    C   C102  0.000000  0.500000  0.774446  0.091842
    C   C103  0.500000  0.000000  0.225554  0.091693
    C   C104  0.000000  0.500000  0.225554  0.091698
    O   O33   0.516341  0.411082  0.536924  -0.577748
    O   O34   0.411082  0.483659  0.536924  -0.577736
    O   O35   0.483659  0.588918  0.536924  -0.577749
    O   O36   0.588918  0.516341  0.536924  -0.577762
    O   O37   0.516341  0.588918  0.463076  -0.577783
    O   O38   0.411082  0.516341  0.463076  -0.577773
    O   O39   0.483659  0.411082  0.463076  -0.577754
    O   O40   0.588918  0.483659  0.463076  -0.577765
    O   O41   0.016341  0.911082  0.036924  -0.577761
    O   O42   0.911082  0.983659  0.036924  -0.577743
    O   O43   0.983659  0.088918  0.036924  -0.577750
    O   O44   0.088918  0.016341  0.036924  -0.577754
    O   O45   0.016341  0.088918  0.963076  -0.577769
    O   O46   0.911082  0.016341  0.963076  -0.577756
    O   O47   0.983659  0.911082  0.963076  -0.577796
    O   O48   0.088918  0.983659  0.963076  -0.577799
    C   C105  0.500000  0.382106  0.500000  0.718379
    C   C106  0.382106  0.500000  0.500000  0.718394
    C   C107  0.500000  0.617894  0.500000  0.718426
    C   C108  0.617894  0.500000  0.500000  0.718412
    C   C109  0.000000  0.882106  0.000000  0.718333
    C   C110  0.882106  0.000000  0.000000  0.718345
    C   C111  0.000000  0.117894  0.000000  0.718358
    C   C112  0.117894  0.000000  0.000000  0.718328
    C   C113  0.314359  0.500000  0.500000  0.071600
    C   C114  0.500000  0.685641  0.500000  0.071640
    C   C115  0.685641  0.500000  0.500000  0.071730
    C   C116  0.500000  0.314359  0.500000  0.071684
    C   C117  0.814359  0.000000  0.000000  0.071716
    C   C118  0.000000  0.185641  0.000000  0.071780
    C   C119  0.185641  0.000000  0.000000  0.071888
    C   C120  0.000000  0.814359  0.000000  0.071773
    Cu  Cu9   0.500000  0.500000  0.543642  0.989229
    Cu  Cu10  0.500000  0.500000  0.456358  0.989200
    Cu  Cu11  0.000000  0.000000  0.043642  0.989249
    Cu  Cu12  0.000000  0.000000  0.956358  0.989217
    C   C121  0.315420  0.595546  0.543731  0.391552
    N   N1    0.342083  0.635064  0.561574  -0.443122
    C   C122  0.595546  0.684580  0.543731  0.391538
    N   N2    0.635064  0.657917  0.561574  -0.443110
    C   C123  0.684580  0.404454  0.543731  0.391612
    N   N3    0.657917  0.364935  0.561574  -0.443124
    C   C124  0.404454  0.315420  0.543731  0.391622
    N   N4    0.364935  0.342083  0.561574  -0.443134
    C   C125  0.315420  0.404454  0.456269  0.391579
    N   N5    0.342083  0.364935  0.438426  -0.443105
    C   C126  0.595546  0.315420  0.456269  0.391543
    N   N6    0.635065  0.342083  0.438426  -0.443098
    C   C127  0.684580  0.595546  0.456269  0.391601
    N   N7    0.657917  0.635064  0.438426  -0.443123
    C   C128  0.404454  0.684580  0.456269  0.391610
    N   N8    0.364935  0.657917  0.438426  -0.443114
    C   C129  0.815420  0.095546  0.043731  0.391610
    N   N9    0.842083  0.135064  0.061574  -0.443132
    C   C130  0.095546  0.184580  0.043731  0.391659
    N   N10   0.135064  0.157917  0.061574  -0.443148
    C   C131  0.184580  0.904454  0.043731  0.391676
    N   N11   0.157917  0.864935  0.061574  -0.443135
    C   C132  0.904454  0.815420  0.043731  0.391630
    N   N12   0.864935  0.842083  0.061574  -0.443134
    C   C133  0.815420  0.904454  0.956269  0.391566
    N   N13   0.842083  0.864935  0.938426  -0.443086
    C   C134  0.095546  0.815420  0.956269  0.391613
    N   N14   0.135064  0.842083  0.938426  -0.443106
    C   C135  0.184580  0.095546  0.956269  0.391607
    N   N15   0.157917  0.135064  0.938426  -0.443105
    C   C136  0.904454  0.184580  0.956269  0.391597
    N   N16   0.864935  0.157917  0.938426  -0.443103
