# Generated by REPEAT Assigner based on pymatgen
data_DB0-m2_o1_o2_f0_nbo.sym.85_sqe
_audit_creation_date              2022-05-24
_audit_creation_method            REPEAT_Assigner
_cell_length_a                    21.582985
_cell_length_b                    21.582985
_cell_length_c                    30.049267
_cell_angle_alpha                 90.000000
_cell_angle_beta                  90.000000
_cell_angle_gamma                 90.000000
_cell_volume                      13997.706788
_symmetry_space_group_name_H-M    P1
_symmetry_Int_Tables_number       1
loop_
    _symmetry_equiv_pos_site_id
    _symmetry_equiv_pos_as_xyz
    1  x,y,z
loop_
    _atom_site_type_symbol
    _atom_site_label
    _atom_site_fract_x
    _atom_site_fract_y
    _atom_site_fract_z
    _atom_type_partial_charge
    O   O1    0.088478  0.448776  0.512009  -0.614467
    O   O2    0.448777  0.911522  0.512007  -0.614290
    O   O3    0.911523  0.551225  0.512009  -0.614425
    O   O4    0.551225  0.088477  0.512007  -0.614460
    O   O5    0.088478  0.551223  0.487991  -0.614433
    O   O6    0.448776  0.088477  0.487990  -0.614500
    O   O7    0.911523  0.448775  0.487991  -0.614463
    O   O8    0.551225  0.911522  0.487988  -0.614385
    O   O9    0.588478  0.948776  0.012011  -0.614402
    O   O10   0.948775  0.411523  0.012009  -0.614436
    O   O11   0.411523  0.051224  0.012011  -0.614472
    O   O12   0.051223  0.588478  0.012010  -0.614439
    O   O13   0.588478  0.051224  0.987993  -0.614444
    O   O14   0.948777  0.588478  0.987991  -0.614440
    O   O15   0.411523  0.948776  0.987993  -0.614426
    O   O16   0.051225  0.411523  0.987991  -0.614433
    C   C1    0.117558  0.500000  0.500000  0.753542
    C   C2    0.500002  0.882443  0.500001  0.753432
    C   C3    0.882443  0.499999  0.500001  0.753602
    C   C4    0.500000  0.117558  0.500001  0.753703
    C   C5    0.617557  0.000000  0.000001  0.753460
    C   C6    0.000000  0.382441  0.000000  0.753362
    C   C7    0.382442  0.000001  0.999999  0.753592
    C   C8    0.000001  0.617556  0.000000  0.753475
    O   O17   0.016703  0.448830  0.436504  -0.650581
    O   O18   0.448830  0.983297  0.436502  -0.650659
    O   O19   0.983300  0.551170  0.436504  -0.650590
    O   O20   0.551169  0.016701  0.436502  -0.650610
    O   O21   0.016703  0.551169  0.563495  -0.650593
    O   O22   0.448830  0.016700  0.563493  -0.650637
    O   O23   0.983299  0.448831  0.563495  -0.650592
    O   O24   0.551169  0.983297  0.563493  -0.650623
    O   O25   0.516702  0.948831  0.936507  -0.650602
    O   O26   0.948830  0.483301  0.936505  -0.650574
    O   O27   0.483299  0.051170  0.936507  -0.650595
    O   O28   0.051169  0.516704  0.936505  -0.650593
    O   O29   0.516703  0.051170  0.063498  -0.650571
    O   O30   0.948830  0.516704  0.063496  -0.650584
    O   O31   0.483299  0.948830  0.063498  -0.650581
    O   O32   0.051169  0.483300  0.063496  -0.650582
    C   C9    0.282113  0.512795  0.538544  0.008530
    C   C10   0.512792  0.717887  0.538545  0.008485
    C   C11   0.717888  0.487205  0.538544  0.008487
    C   C12   0.487207  0.282113  0.538544  0.008483
    C   C13   0.282110  0.487205  0.461456  0.008506
    C   C14   0.512799  0.282110  0.461457  0.008427
    C   C15   0.717888  0.512796  0.461457  0.008455
    C   C16   0.487202  0.717891  0.461457  0.008437
    C   C17   0.782109  0.012795  0.038545  0.008503
    C   C18   0.012797  0.217889  0.038544  0.008451
    C   C19   0.217888  0.987204  0.038542  0.008442
    C   C20   0.987206  0.782111  0.038544  0.008526
    C   C21   0.782113  0.987207  0.961457  0.008532
    C   C22   0.012792  0.782112  0.961456  0.008524
    C   C23   0.217889  0.012794  0.961455  0.008498
    C   C24   0.987205  0.217887  0.961457  0.008431
    C   C25   0.000002  0.500000  0.415593  0.906039
    C   C26   0.499999  0.000000  0.415592  0.906130
    C   C27   0.999999  0.500001  0.584407  0.906086
    C   C28   0.500000  0.000001  0.584406  0.906100
    C   C29   0.499999  0.000000  0.915595  0.906120
    C   C30   0.000001  0.499999  0.915593  0.906111
    C   C31   0.500001  0.000000  0.084409  0.906074
    C   C32   0.999999  0.500001  0.084407  0.906075
    Cu  Cu1   0.000001  0.439424  0.500000  0.985438
    Cu  Cu2   0.439424  0.999998  0.499998  0.985498
    Cu  Cu3   0.000001  0.560576  0.500000  0.985388
    Cu  Cu4   0.560576  0.999998  0.499998  0.985365
    Cu  Cu5   0.500001  0.939424  0.000002  0.985410
    Cu  Cu6   0.939424  0.500002  0.000001  0.985445
    Cu  Cu7   0.500001  0.060576  0.000002  0.985439
    Cu  Cu8   0.060576  0.500002  0.000000  0.985404
    C   C33   0.185557  0.500000  0.499999  -0.109963
    C   C34   0.499998  0.814443  0.500002  -0.110141
    C   C35   0.814443  0.499999  0.500000  -0.110064
    C   C36   0.500003  0.185558  0.499999  -0.110111
    C   C37   0.685557  0.000001  0.000001  -0.109880
    C   C38   0.000001  0.314441  0.000000  -0.109795
    C   C39   0.314442  0.999999  0.000001  -0.110058
    C   C40   0.000000  0.685556  0.000000  -0.109845
    C   C41   0.218142  0.511480  0.539108  -0.053413
    C   C42   0.511483  0.781858  0.539109  -0.053296
    C   C43   0.781859  0.488522  0.539109  -0.053310
    C   C44   0.488518  0.218142  0.539107  -0.053365
    C   C45   0.218141  0.488520  0.460891  -0.053351
    C   C46   0.511477  0.218141  0.460890  -0.053217
    C   C47   0.781860  0.511480  0.460892  -0.053302
    C   C48   0.488521  0.781861  0.460892  -0.053226
    C   C49   0.718140  0.011477  0.039110  -0.053357
    C   C50   0.011478  0.281859  0.039110  -0.053437
    C   C51   0.281859  0.988521  0.039109  -0.053265
    C   C52   0.988521  0.718140  0.039109  -0.053456
    C   C53   0.718142  0.988519  0.960892  -0.053480
    C   C54   0.011481  0.718141  0.960892  -0.053460
    C   C55   0.281859  0.011479  0.960892  -0.053342
    C   C56   0.988521  0.281858  0.960891  -0.053425
    C   C57   0.976603  0.550041  0.297730  -0.134986
    C   C58   0.550042  0.023398  0.297730  -0.135013
    C   C59   0.023398  0.449958  0.297731  -0.134994
    C   C60   0.449958  0.976602  0.297730  -0.135056
    C   C61   0.976603  0.449958  0.702270  -0.135018
    C   C62   0.550041  0.976602  0.702269  -0.134950
    C   C63   0.023398  0.550041  0.702270  -0.134978
    C   C64   0.449958  0.023397  0.702270  -0.134973
    C   C65   0.476602  0.050041  0.797730  -0.134977
    C   C66   0.050041  0.523398  0.797731  -0.134953
    C   C67   0.523399  0.949960  0.797730  -0.134944
    C   C68   0.949958  0.476603  0.797730  -0.134996
    C   C69   0.476602  0.949958  0.202270  -0.135020
    C   C70   0.050042  0.476602  0.202270  -0.135004
    C   C71   0.523398  0.050042  0.202270  -0.135007
    C   C72   0.949959  0.523399  0.202270  -0.134998
    H   H1    0.959152  0.590254  0.280368  0.102521
    H   H2    0.590255  0.040850  0.280369  0.102533
    H   H3    0.040848  0.409745  0.280369  0.102532
    H   H4    0.409745  0.959151  0.280370  0.102546
    H   H5    0.959151  0.409746  0.719633  0.102538
    H   H6    0.590253  0.959154  0.719634  0.102514
    H   H7    0.040848  0.590254  0.719632  0.102524
    H   H8    0.409746  0.040847  0.719634  0.102524
    H   H9    0.459151  0.090253  0.780367  0.102526
    H   H10   0.090254  0.540847  0.780368  0.102516
    H   H11   0.540849  0.909747  0.780367  0.102515
    H   H12   0.909746  0.459151  0.780368  0.102536
    H   H13   0.459152  0.909745  0.219631  0.102542
    H   H14   0.090254  0.459151  0.219632  0.102538
    H   H15   0.540848  0.090255  0.219631  0.102540
    H   H16   0.909746  0.540848  0.219632  0.102535
    C   C73   0.976795  0.550157  0.343597  -0.104264
    C   C74   0.550157  0.023205  0.343597  -0.104263
    C   C75   0.023203  0.449843  0.343598  -0.104267
    C   C76   0.449843  0.976796  0.343597  -0.104196
    C   C77   0.976796  0.449843  0.656403  -0.104180
    C   C78   0.550156  0.976797  0.656402  -0.104231
    C   C79   0.023205  0.550157  0.656403  -0.104234
    C   C80   0.449843  0.023204  0.656403  -0.104215
    C   C81   0.476796  0.050156  0.843597  -0.104237
    C   C82   0.050157  0.523204  0.843598  -0.104267
    C   C83   0.523205  0.949844  0.843597  -0.104286
    C   C84   0.949843  0.476796  0.843597  -0.104233
    C   C85   0.476795  0.949843  0.156403  -0.104226
    C   C86   0.050156  0.476795  0.156403  -0.104239
    C   C87   0.523204  0.050157  0.156403  -0.104227
    C   C88   0.949843  0.523204  0.156403  -0.104225
    H   H17   0.958320  0.589961  0.360897  0.101468
    H   H18   0.589959  0.041680  0.360898  0.101479
    H   H19   0.041681  0.410039  0.360897  0.101465
    H   H20   0.410041  0.958319  0.360898  0.101464
    H   H21   0.958319  0.410039  0.639104  0.101447
    H   H22   0.589963  0.958319  0.639105  0.101457
    H   H23   0.041681  0.589961  0.639104  0.101461
    H   H24   0.410038  0.041680  0.639105  0.101454
    H   H25   0.458318  0.089961  0.860895  0.101458
    H   H26   0.089961  0.541681  0.860897  0.101466
    H   H27   0.541683  0.910039  0.860895  0.101471
    H   H28   0.910039  0.458319  0.860896  0.101455
    H   H29   0.458320  0.910039  0.139103  0.101462
    H   H30   0.089960  0.458319  0.139104  0.101458
    H   H31   0.541680  0.089960  0.139103  0.101455
    H   H32   0.910040  0.541682  0.139103  0.101449
    C   C89   0.000000  0.500001  0.366807  -0.042016
    C   C90   0.499999  0.000001  0.366806  -0.042110
    C   C91   0.999999  0.500001  0.633193  -0.042175
    C   C92   0.500000  0.000001  0.633193  -0.042168
    C   C93   0.500000  0.000000  0.866807  -0.042101
    C   C94   0.000000  0.499999  0.866807  -0.042088
    C   C95   0.500000  0.000000  0.133194  -0.042100
    C   C96   0.999999  0.499999  0.133194  -0.042084
    C   C97   0.000001  0.500000  0.274451  0.080309
    C   C98   0.500001  0.999999  0.274451  0.080355
    C   C99   0.000000  0.500000  0.725549  0.080329
    C   C100  0.500000  0.000000  0.725549  0.080283
    C   C101  0.500000  0.000000  0.774451  0.080303
    C   C102  0.000000  0.500001  0.774451  0.080290
    C   C103  0.500001  0.000000  0.225549  0.080312
    C   C104  0.000001  0.500002  0.225549  0.080315
    O   O33   0.483057  0.411498  0.536698  -0.566041
    O   O34   0.411499  0.516942  0.536698  -0.566084
    O   O35   0.516944  0.588500  0.536698  -0.566093
    O   O36   0.588501  0.483055  0.536698  -0.566061
    O   O37   0.483060  0.588501  0.463304  -0.566034
    O   O38   0.411499  0.483059  0.463304  -0.565960
    O   O39   0.516942  0.411498  0.463304  -0.565961
    O   O40   0.588502  0.516940  0.463305  -0.565956
    O   O41   0.983059  0.911499  0.036697  -0.566078
    O   O42   0.911499  0.016942  0.036696  -0.565999
    O   O43   0.016942  0.088502  0.036697  -0.566049
    O   O44   0.088502  0.983059  0.036696  -0.565989
    O   O45   0.983057  0.088502  0.963303  -0.566023
    O   O46   0.911499  0.983058  0.963303  -0.566023
    O   O47   0.016943  0.911499  0.963303  -0.566050
    O   O48   0.088501  0.016944  0.963302  -0.565993
    C   C105  0.500000  0.382331  0.500001  0.681269
    C   C106  0.382331  0.500001  0.500001  0.681356
    C   C107  0.500000  0.617669  0.500001  0.681377
    C   C108  0.617669  0.500000  0.500002  0.681337
    C   C109  0.000000  0.882331  0.000000  0.681315
    C   C110  0.882331  0.000000  0.000000  0.681295
    C   C111  0.000000  0.117669  0.000000  0.681257
    C   C112  0.117669  0.000000  0.999998  0.681248
    C   C113  0.314341  0.500000  0.500000  -0.166554
    C   C114  0.500002  0.685659  0.500000  -0.166509
    C   C115  0.685658  0.500001  0.500002  -0.166503
    C   C116  0.499999  0.314341  0.500000  -0.166449
    C   C117  0.814341  0.999999  0.000002  -0.166536
    C   C118  0.000000  0.185659  0.000001  -0.166419
    C   C119  0.185659  0.000000  0.999998  -0.166479
    C   C120  0.000001  0.814341  0.000000  -0.166529
    Cu  Cu9   0.500000  0.499999  0.543474  0.912290
    Cu  Cu10  0.500001  0.499999  0.456528  0.912305
    Cu  Cu11  0.000001  0.000000  0.043473  0.912171
    Cu  Cu12  0.000000  0.000001  0.956527  0.912207
    H   H33   0.306876  0.521738  0.569093  0.088952
    H   H34   0.521740  0.693124  0.569093  0.088951
    H   H35   0.693119  0.478263  0.569092  0.088949
    H   H36   0.478262  0.306882  0.569094  0.088962
    H   H37   0.306875  0.478263  0.430908  0.088921
    H   H38   0.521736  0.306877  0.430909  0.088943
    H   H39   0.693124  0.521736  0.430907  0.088942
    H   H40   0.478263  0.693128  0.430908  0.088956
    H   H41   0.806876  0.021735  0.069092  0.088923
    H   H42   0.021736  0.193119  0.069093  0.088966
    H   H43   0.193125  0.978265  0.069093  0.088942
    H   H44   0.978264  0.806872  0.069093  0.088941
    H   H45   0.806876  0.978264  0.930906  0.088936
    H   H46   0.021737  0.806874  0.930908  0.088943
    H   H47   0.193119  0.021737  0.930908  0.088938
    H   H48   0.978264  0.193119  0.930907  0.088969
    C   C121  0.186640  0.522625  0.581779  0.658439
    O   O49   0.140715  0.493110  0.592015  -0.493973
    N   N1    0.212840  0.564643  0.613201  -0.721727
    H   H49   0.183843  0.565127  0.641015  0.328107
    H   H50   0.211816  0.608735  0.598928  0.279297
    C   C122  0.522624  0.813359  0.581779  0.658406
    O   O50   0.493110  0.859284  0.592014  -0.493963
    N   N2    0.564643  0.787159  0.613200  -0.721728
    H   H51   0.565128  0.816156  0.641014  0.328084
    H   H52   0.608736  0.788184  0.598929  0.279318
    C   C123  0.813358  0.477379  0.581780  0.658373
    O   O51   0.859285  0.506891  0.592013  -0.493949
    N   N3    0.787159  0.435358  0.613201  -0.721747
    H   H53   0.816157  0.434873  0.641013  0.328087
    H   H54   0.788186  0.391266  0.598930  0.279324
    C   C124  0.477379  0.186641  0.581781  0.658354
    O   O52   0.506891  0.140713  0.592016  -0.493938
    N   N4    0.435357  0.212840  0.613201  -0.721760
    H   H55   0.434872  0.183844  0.641015  0.328099
    H   H56   0.391266  0.211816  0.598930  0.279350
    C   C125  0.186640  0.477377  0.418221  0.658493
    O   O53   0.140714  0.506891  0.407988  -0.494019
    N   N5    0.212839  0.435357  0.386799  -0.721747
    H   H57   0.183844  0.434870  0.358985  0.328097
    H   H58   0.211815  0.391265  0.401071  0.279305
    C   C126  0.522623  0.186640  0.418220  0.658366
    O   O54   0.493108  0.140713  0.407988  -0.493959
    N   N6    0.564644  0.212839  0.386799  -0.721733
    H   H59   0.565132  0.183844  0.358987  0.328103
    H   H60   0.608734  0.211813  0.401070  0.279309
    C   C127  0.813362  0.522622  0.418220  0.658390
    O   O55   0.859289  0.493107  0.407985  -0.493980
    N   N7    0.787163  0.564643  0.386798  -0.721730
    H   H61   0.816156  0.565130  0.358983  0.328116
    H   H62   0.788186  0.608733  0.401071  0.279303
    C   C128  0.477374  0.813361  0.418222  0.658417
    O   O56   0.506889  0.859286  0.407986  -0.493963
    N   N8    0.435355  0.787162  0.386799  -0.721733
    H   H63   0.434870  0.816158  0.358984  0.328108
    H   H64   0.391264  0.788185  0.401074  0.279286
    C   C129  0.686641  0.022622  0.081779  0.658484
    O   O57   0.640715  0.993107  0.092012  -0.494015
    N   N9    0.712840  0.064641  0.113202  -0.721739
    H   H65   0.683842  0.065126  0.141015  0.328096
    H   H66   0.711814  0.108733  0.098930  0.279294
    C   C130  0.022620  0.313359  0.081781  0.658513
    O   O58   0.993107  0.359287  0.092014  -0.494011
    N   N10   0.064642  0.287161  0.113202  -0.721800
    H   H67   0.065129  0.316156  0.141014  0.328117
    H   H68   0.108733  0.288187  0.098931  0.279329
    C   C131  0.313363  0.977378  0.081780  0.658384
    O   O59   0.359288  0.006894  0.092015  -0.493955
    N   N11   0.287162  0.935359  0.113202  -0.721707
    H   H69   0.316156  0.934873  0.141016  0.328105
    H   H70   0.288186  0.891267  0.098929  0.279287
    C   C132  0.977377  0.686639  0.081779  0.658510
    O   O60   0.006892  0.640715  0.092014  -0.494014
    N   N12   0.935359  0.712838  0.113202  -0.721741
    H   H71   0.934875  0.683842  0.141018  0.328102
    H   H72   0.891267  0.711816  0.098929  0.279299
    C   C133  0.686640  0.977379  0.918220  0.658498
    O   O61   0.640714  0.006893  0.907984  -0.493986
    N   N13   0.712839  0.935359  0.886798  -0.721760
    H   H73   0.683844  0.934875  0.858983  0.328107
    H   H74   0.711816  0.891267  0.901071  0.279316
    C   C134  0.022623  0.686641  0.918221  0.658511
    O   O62   0.993108  0.640716  0.907987  -0.494006
    N   N14   0.064641  0.712840  0.886799  -0.721729
    H   H75   0.065123  0.683842  0.858985  0.328083
    H   H76   0.108733  0.711815  0.901071  0.279306
    C   C135  0.313357  0.022620  0.918220  0.658382
    O   O63   0.359285  0.993108  0.907986  -0.493958
    N   N15   0.287159  0.064641  0.886798  -0.721754
    H   H77   0.316156  0.065126  0.858986  0.328095
    H   H78   0.288185  0.108733  0.901069  0.279325
    C   C136  0.977380  0.313360  0.918219  0.658503
    O   O64   0.006893  0.359288  0.907986  -0.494015
    N   N16   0.935359  0.287160  0.886799  -0.721763
    H   H79   0.934872  0.316155  0.858986  0.328093
    H   H80   0.891268  0.288186  0.901069  0.279328
