# Generated by REPEAT Assigner based on pymatgen
data_DB0-m2_o1_o3_f0_nbo.sym.102_sqe
_audit_creation_date              2022-05-24
_audit_creation_method            REPEAT_Assigner
_cell_length_a                    21.512470
_cell_length_b                    21.512470
_cell_length_c                    38.729553
_cell_angle_alpha                 90.000000
_cell_angle_beta                  90.000000
_cell_angle_gamma                 90.000000
_cell_volume                      17923.508330
_symmetry_space_group_name_H-M    P1
_symmetry_Int_Tables_number       1
loop_
    _symmetry_equiv_pos_site_id
    _symmetry_equiv_pos_as_xyz
    1  x,y,z
loop_
    _atom_site_type_symbol
    _atom_site_label
    _atom_site_fract_x
    _atom_site_fract_y
    _atom_site_fract_z
    _atom_type_partial_charge
    O   O1    0.588403  0.051014  0.489889  -0.544549
    O   O2    0.948986  0.588403  0.489889  -0.544557
    O   O3    0.411597  0.948986  0.489889  -0.544514
    O   O4    0.051014  0.411597  0.489889  -0.544561
    O   O5    0.588403  0.948986  0.510111  -0.544528
    O   O6    0.948986  0.411597  0.510111  -0.544543
    O   O7    0.411597  0.051014  0.510111  -0.544525
    O   O8    0.051014  0.588403  0.510111  -0.544586
    O   O9    0.088403  0.551014  0.989889  -0.544509
    O   O10   0.448986  0.088403  0.989889  -0.544560
    O   O11   0.911597  0.448986  0.989889  -0.544505
    O   O12   0.551014  0.911597  0.989889  -0.544565
    O   O13   0.088403  0.448986  0.010111  -0.544524
    O   O14   0.448986  0.911597  0.010111  -0.544546
    O   O15   0.911597  0.551014  0.010111  -0.544507
    O   O16   0.551014  0.088403  0.010111  -0.544568
    C   C1    0.617425  0.000000  0.500000  0.572078
    C   C2    0.000000  0.617425  0.500000  0.572066
    C   C3    0.382575  0.000000  0.500000  0.572042
    C   C4    0.000000  0.382575  0.500000  0.572029
    C   C5    0.117425  0.500000  0.000000  0.572018
    C   C6    0.500000  0.117425  0.000000  0.572085
    C   C7    0.882575  0.500000  0.000000  0.571980
    C   C8    0.500000  0.882575  0.000000  0.572044
    O   O17   0.518270  0.050853  0.549192  -0.614855
    O   O18   0.949147  0.518270  0.549192  -0.614874
    O   O19   0.481730  0.949147  0.549192  -0.614827
    O   O20   0.050853  0.481730  0.549192  -0.614900
    O   O21   0.518270  0.949147  0.450808  -0.614829
    O   O22   0.949147  0.481730  0.450808  -0.614871
    O   O23   0.481730  0.050853  0.450808  -0.614844
    O   O24   0.050853  0.518270  0.450808  -0.614906
    O   O25   0.018270  0.550853  0.049192  -0.614845
    O   O26   0.449147  0.018270  0.049192  -0.614908
    O   O27   0.981729  0.449147  0.049192  -0.614837
    O   O28   0.550853  0.981730  0.049192  -0.614927
    O   O29   0.018270  0.449147  0.950808  -0.614839
    O   O30   0.449147  0.981730  0.950808  -0.614903
    O   O31   0.981730  0.550853  0.950808  -0.614848
    O   O32   0.550853  0.018270  0.950808  -0.614924
    C   C9    0.500000  0.000000  0.565579  0.776994
    C   C10   0.000000  0.500000  0.565579  0.776989
    C   C11   0.500000  0.000000  0.434421  0.776988
    C   C12   0.000000  0.500000  0.434421  0.776997
    C   C13   0.000000  0.500000  0.065579  0.776947
    C   C14   0.500000  0.000000  0.065579  0.777105
    C   C15   0.000000  0.500000  0.934421  0.776952
    C   C16   0.500000  0.000000  0.934421  0.777095
    Cu  Cu1   0.500000  0.060525  0.500000  1.047953
    Cu  Cu2   0.939475  0.500000  0.500000  1.047967
    Cu  Cu3   0.500000  0.939475  0.500000  1.048083
    Cu  Cu4   0.060525  0.500000  0.500000  1.047790
    Cu  Cu5   0.000000  0.560525  0.000000  1.048026
    Cu  Cu6   0.439475  0.000000  0.000000  1.047891
    Cu  Cu7   0.000000  0.439475  0.000000  1.047997
    Cu  Cu8   0.560525  0.000000  0.000000  1.047813
    C   C17   0.553888  0.986569  0.877938  -0.097237
    C   C18   0.013431  0.553888  0.877938  -0.097245
    C   C19   0.446112  0.013431  0.877938  -0.097240
    C   C20   0.986569  0.446112  0.877938  -0.097263
    C   C21   0.553888  0.013431  0.122062  -0.097228
    C   C22   0.013431  0.446112  0.122062  -0.097262
    C   C23   0.446112  0.986569  0.122062  -0.097243
    C   C24   0.986569  0.553888  0.122062  -0.097258
    C   C25   0.053888  0.486569  0.377938  -0.097255
    C   C26   0.513431  0.053888  0.377938  -0.097242
    C   C27   0.946112  0.513431  0.377938  -0.097257
    C   C28   0.486569  0.946112  0.377938  -0.097260
    C   C29   0.053888  0.513431  0.622062  -0.097254
    C   C30   0.513431  0.946112  0.622062  -0.097252
    C   C31   0.946112  0.486569  0.622062  -0.097270
    C   C32   0.486569  0.053888  0.622062  -0.097247
    C   C33   0.553785  0.987433  0.842362  -0.101105
    C   C34   0.012567  0.553785  0.842362  -0.101093
    C   C35   0.446215  0.012567  0.842362  -0.101101
    C   C36   0.987433  0.446215  0.842362  -0.101095
    C   C37   0.553785  0.012567  0.157638  -0.101105
    C   C38   0.012567  0.446215  0.157638  -0.101087
    C   C39   0.446215  0.987433  0.157638  -0.101105
    C   C40   0.987433  0.553785  0.157638  -0.101090
    C   C41   0.053785  0.487433  0.342362  -0.101102
    C   C42   0.512567  0.053785  0.342362  -0.101093
    C   C43   0.946215  0.512567  0.342362  -0.101098
    C   C44   0.487433  0.946215  0.342362  -0.101098
    C   C45   0.053785  0.512567  0.657638  -0.101092
    C   C46   0.512567  0.946215  0.657638  -0.101092
    C   C47   0.946215  0.487433  0.657638  -0.101097
    C   C48   0.487433  0.053785  0.657638  -0.101097
    H   H1    0.597101  0.978555  0.829190  0.116882
    H   H2    0.021445  0.597101  0.829190  0.116883
    H   H3    0.402899  0.021445  0.829190  0.116879
    H   H4    0.978555  0.402899  0.829190  0.116886
    H   H5    0.597101  0.021445  0.170810  0.116880
    H   H6    0.021445  0.402899  0.170810  0.116881
    H   H7    0.402899  0.978555  0.170810  0.116882
    H   H8    0.978555  0.597101  0.170810  0.116882
    H   H9    0.097101  0.478555  0.329190  0.116887
    H   H10   0.521445  0.097101  0.329189  0.116882
    H   H11   0.902899  0.521445  0.329190  0.116883
    H   H12   0.478555  0.902899  0.329190  0.116882
    H   H13   0.097101  0.521445  0.670810  0.116881
    H   H14   0.521445  0.902899  0.670810  0.116882
    H   H15   0.902899  0.478555  0.670810  0.116882
    H   H16   0.478555  0.097101  0.670810  0.116884
    C   C49   0.500000  0.000000  0.824147  0.059199
    C   C50   0.000000  0.500000  0.824147  0.059186
    C   C51   0.500000  0.000000  0.175853  0.059197
    C   C52   0.000000  0.500000  0.175853  0.059183
    C   C53   0.000000  0.500000  0.324147  0.059183
    C   C54   0.500000  0.000000  0.324147  0.059195
    C   C55   0.000000  0.500000  0.675853  0.059183
    C   C56   0.500000  0.000000  0.675853  0.059192
    C   C57   0.500000  0.000000  0.896285  0.099559
    C   C58   0.000000  0.500000  0.896285  0.099639
    C   C59   0.500000  0.000000  0.103715  0.099546
    C   C60   0.000000  0.500000  0.103715  0.099653
    C   C61   0.000000  0.500000  0.396285  0.099612
    C   C62   0.500000  0.000000  0.396285  0.099631
    C   C63   0.000000  0.500000  0.603715  0.099628
    C   C64   0.500000  0.000000  0.603715  0.099618
    C   C65   0.461178  0.039398  0.767790  -0.145766
    C   C66   0.960602  0.461178  0.767790  -0.145785
    C   C67   0.538822  0.960602  0.767790  -0.145776
    C   C68   0.039398  0.538822  0.767790  -0.145777
    C   C69   0.461178  0.960602  0.232210  -0.145785
    C   C70   0.960602  0.538822  0.232210  -0.145783
    C   C71   0.538822  0.039398  0.232210  -0.145776
    C   C72   0.039398  0.461178  0.232210  -0.145774
    C   C73   0.961178  0.539398  0.267790  -0.145767
    C   C74   0.460602  0.961178  0.267790  -0.145769
    C   C75   0.038822  0.460602  0.267790  -0.145775
    C   C76   0.539398  0.038822  0.267790  -0.145767
    C   C77   0.961178  0.460602  0.732210  -0.145771
    C   C78   0.460602  0.038822  0.732210  -0.145782
    C   C79   0.038822  0.539398  0.732210  -0.145766
    C   C80   0.539398  0.961178  0.732210  -0.145772
    H   H17   0.431190  0.071960  0.780915  0.127696
    H   H18   0.928040  0.431190  0.780915  0.127701
    H   H19   0.568810  0.928040  0.780915  0.127700
    H   H20   0.071960  0.568810  0.780915  0.127696
    H   H21   0.431190  0.928039  0.219085  0.127702
    H   H22   0.928040  0.568810  0.219085  0.127701
    H   H23   0.568810  0.071960  0.219085  0.127699
    H   H24   0.071960  0.431190  0.219085  0.127697
    H   H25   0.931190  0.571960  0.280915  0.127694
    H   H26   0.428040  0.931190  0.280915  0.127696
    H   H27   0.068810  0.428040  0.280915  0.127697
    H   H28   0.571960  0.068810  0.280915  0.127693
    H   H29   0.931190  0.428040  0.719085  0.127697
    H   H30   0.428039  0.068810  0.719085  0.127698
    H   H31   0.068810  0.571960  0.719085  0.127693
    H   H32   0.571960  0.931190  0.719085  0.127694
    C   C81   0.500000  0.000000  0.713973  0.101958
    C   C82   0.000000  0.500000  0.713973  0.101961
    C   C83   0.500000  0.000000  0.286027  0.101950
    C   C84   0.000000  0.500000  0.286027  0.101959
    C   C85   0.000000  0.500000  0.213973  0.101959
    C   C86   0.500000  0.000000  0.213973  0.101960
    C   C87   0.000000  0.500000  0.786027  0.101961
    C   C88   0.500000  0.000000  0.786027  0.101952
    C   C89   0.717391  0.001066  0.469185  -0.007410
    C   C90   0.998934  0.717391  0.469185  -0.007414
    C   C91   0.282609  0.998934  0.469185  -0.007391
    C   C92   0.001066  0.282609  0.469185  -0.007396
    C   C93   0.717391  0.998934  0.530815  -0.007408
    C   C94   0.998934  0.282609  0.530815  -0.007392
    C   C95   0.282609  0.001066  0.530815  -0.007388
    C   C96   0.001066  0.717391  0.530815  -0.007413
    C   C97   0.217391  0.501066  0.969185  -0.007418
    C   C98   0.498934  0.217391  0.969185  -0.007380
    C   C99   0.782609  0.498934  0.969185  -0.007415
    C   C100  0.501066  0.782609  0.969185  -0.007374
    C   C101  0.217391  0.498934  0.030815  -0.007421
    C   C102  0.498934  0.782609  0.030815  -0.007373
    C   C103  0.782609  0.501066  0.030815  -0.007410
    C   C104  0.501066  0.217391  0.030815  -0.007375
    C   C105  0.781455  0.000198  0.469171  -0.097548
    C   C106  0.999802  0.781455  0.469171  -0.097546
    C   C107  0.218545  0.999802  0.469171  -0.097552
    C   C108  0.000198  0.218545  0.469171  -0.097548
    C   C109  0.781455  0.999802  0.530829  -0.097548
    C   C110  0.999802  0.218545  0.530829  -0.097551
    C   C111  0.218545  0.000198  0.530829  -0.097556
    C   C112  0.000198  0.781455  0.530829  -0.097549
    C   C113  0.281455  0.500198  0.969171  -0.097524
    C   C114  0.499802  0.281455  0.969171  -0.097544
    C   C115  0.718545  0.499802  0.969171  -0.097526
    C   C116  0.500198  0.718545  0.969171  -0.097552
    C   C117  0.281455  0.499802  0.030829  -0.097521
    C   C118  0.499802  0.718545  0.030829  -0.097554
    C   C119  0.718545  0.500198  0.030829  -0.097534
    C   C120  0.500198  0.281455  0.030829  -0.097551
    H   H33   0.805803  0.000678  0.444770  0.144950
    H   H34   0.999322  0.805803  0.444770  0.144948
    H   H35   0.194197  0.999322  0.444770  0.144950
    H   H36   0.000678  0.194197  0.444770  0.144949
    H   H37   0.805803  0.999322  0.555230  0.144950
    H   H38   0.999322  0.194197  0.555230  0.144951
    H   H39   0.194197  0.000678  0.555230  0.144952
    H   H40   0.000678  0.805803  0.555230  0.144951
    H   H41   0.305803  0.500678  0.944770  0.144942
    H   H42   0.499322  0.305803  0.944770  0.144941
    H   H43   0.694197  0.499322  0.944770  0.144945
    H   H44   0.500678  0.694197  0.944770  0.144945
    H   H45   0.305803  0.499322  0.055230  0.144942
    H   H46   0.499322  0.694197  0.055230  0.144946
    H   H47   0.694197  0.500678  0.055230  0.144946
    H   H48   0.500678  0.305803  0.055230  0.144943
    C   C121  0.813783  0.000000  0.500000  -0.025534
    C   C122  0.000000  0.813783  0.500000  -0.025544
    C   C123  0.186217  0.000000  0.500000  -0.025542
    C   C124  0.000000  0.186217  0.500000  -0.025559
    C   C125  0.313783  0.500000  0.000000  -0.025590
    C   C126  0.500000  0.313783  0.000000  -0.025558
    C   C127  0.686217  0.500000  0.000000  -0.025587
    C   C128  0.500000  0.686217  0.000000  -0.025560
    C   C129  0.685237  0.000000  0.500000  0.018492
    C   C130  0.000000  0.685237  0.500000  0.018489
    C   C131  0.314763  0.000000  0.500000  0.018483
    C   C132  0.000000  0.314763  0.500000  0.018477
    C   C133  0.185237  0.500000  0.000000  0.018525
    C   C134  0.500000  0.185237  0.000000  0.018421
    C   C135  0.814763  0.500000  0.000000  0.018534
    C   C136  0.500000  0.814763  0.000000  0.018435
    O   O33   0.983546  0.088992  0.471454  -0.577776
    O   O34   0.911008  0.983546  0.471454  -0.577777
    O   O35   0.016454  0.911008  0.471454  -0.577777
    O   O36   0.088992  0.016454  0.471454  -0.577770
    O   O37   0.983546  0.911008  0.528546  -0.577780
    O   O38   0.911008  0.016454  0.528546  -0.577777
    O   O39   0.016454  0.088992  0.528546  -0.577772
    O   O40   0.088992  0.983546  0.528546  -0.577774
    O   O41   0.483546  0.588992  0.971454  -0.577777
    O   O42   0.411008  0.483546  0.971454  -0.577777
    O   O43   0.516454  0.411008  0.971454  -0.577773
    O   O44   0.588992  0.516454  0.971454  -0.577785
    O   O45   0.483546  0.411008  0.028546  -0.577785
    O   O46   0.411008  0.516454  0.028546  -0.577789
    O   O47   0.516454  0.588992  0.028546  -0.577795
    O   O48   0.588992  0.483546  0.028546  -0.577793
    C   C137  0.000000  0.118172  0.500000  0.667889
    C   C138  0.881828  0.000000  0.500000  0.667872
    C   C139  0.000000  0.881828  0.500000  0.667869
    C   C140  0.118172  0.000000  0.500000  0.667882
    C   C141  0.500000  0.618172  0.000000  0.667903
    C   C142  0.381828  0.500000  0.000000  0.667910
    C   C143  0.500000  0.381828  0.000000  0.667890
    C   C144  0.618172  0.500000  0.000000  0.667921
    Cu  Cu9   0.000000  0.000000  0.466251  0.953014
    Cu  Cu10  0.000000  0.000000  0.533749  0.952993
    Cu  Cu11  0.500000  0.500000  0.966251  0.952968
    Cu  Cu12  0.500000  0.500000  0.033749  0.952912
    C   C145  0.610466  0.968701  0.894963  0.427454
    N   N1    0.656083  0.954195  0.908588  -0.460949
    C   C146  0.031299  0.610466  0.894963  0.427460
    N   N2    0.045805  0.656083  0.908588  -0.460941
    C   C147  0.389534  0.031299  0.894963  0.427437
    N   N3    0.343917  0.045805  0.908588  -0.460926
    C   C148  0.968701  0.389534  0.894963  0.427478
    N   N4    0.954195  0.343917  0.908588  -0.460952
    C   C149  0.610466  0.031299  0.105037  0.427448
    N   N5    0.656083  0.045805  0.091412  -0.460947
    C   C150  0.031299  0.389534  0.105037  0.427447
    N   N6    0.045805  0.343917  0.091412  -0.460922
    C   C151  0.389534  0.968701  0.105037  0.427467
    N   N7    0.343917  0.954195  0.091412  -0.460958
    C   C152  0.968701  0.610466  0.105037  0.427467
    N   N8    0.954195  0.656083  0.091412  -0.460945
    C   C153  0.110466  0.468701  0.394963  0.427465
    N   N9    0.156083  0.454195  0.408588  -0.460953
    C   C154  0.531299  0.110466  0.394963  0.427431
    N   N10   0.545805  0.156083  0.408588  -0.460919
    C   C155  0.889534  0.531299  0.394963  0.427448
    N   N11   0.843917  0.545805  0.408588  -0.460931
    C   C156  0.468701  0.889534  0.394963  0.427457
    N   N12   0.454195  0.843917  0.408588  -0.460932
    C   C157  0.110466  0.531299  0.605037  0.427437
    N   N13   0.156083  0.545805  0.591412  -0.460923
    C   C158  0.531299  0.889534  0.605037  0.427447
    N   N14   0.545805  0.843917  0.591412  -0.460928
    C   C159  0.889534  0.468701  0.605037  0.427459
    N   N15   0.843917  0.454195  0.591412  -0.460935
    C   C160  0.468701  0.110466  0.605037  0.427467
    N   N16   0.454195  0.156083  0.591412  -0.460951
    C   C161  0.684460  0.001313  0.436952  0.369591
    N   N17   0.658065  0.001486  0.410927  -0.436899
    C   C162  0.998687  0.684460  0.436952  0.369595
    N   N18   0.998514  0.658065  0.410927  -0.436901
    C   C163  0.315540  0.998687  0.436952  0.369579
    N   N19   0.341935  0.998514  0.410927  -0.436894
    C   C164  0.001313  0.315540  0.436952  0.369582
    N   N20   0.001486  0.341935  0.410927  -0.436894
    C   C165  0.684460  0.998687  0.563048  0.369593
    N   N21   0.658065  0.998514  0.589073  -0.436899
    C   C166  0.998687  0.315540  0.563048  0.369576
    N   N22   0.998514  0.341935  0.589073  -0.436891
    C   C167  0.315540  0.001313  0.563048  0.369580
    N   N23   0.341935  0.001486  0.589073  -0.436893
    C   C168  0.001313  0.684460  0.563048  0.369592
    N   N24   0.001486  0.658065  0.589073  -0.436899
    C   C169  0.184460  0.501313  0.936952  0.369602
    N   N25   0.158065  0.501486  0.910927  -0.436899
    C   C170  0.498687  0.184460  0.936952  0.369584
    N   N26   0.498514  0.158065  0.910927  -0.436904
    C   C171  0.815540  0.498687  0.936952  0.369593
    N   N27   0.841935  0.498514  0.910927  -0.436895
    C   C172  0.501313  0.815540  0.936952  0.369581
    N   N28   0.501486  0.841935  0.910927  -0.436904
    C   C173  0.184460  0.498687  0.063048  0.369598
    N   N29   0.158065  0.498514  0.089073  -0.436897
    C   C174  0.498687  0.815540  0.063048  0.369582
    N   N30   0.498514  0.841935  0.089073  -0.436904
    C   C175  0.815540  0.501313  0.063048  0.369594
    N   N31   0.841935  0.501486  0.089073  -0.436898
    C   C176  0.501313  0.184460  0.063048  0.369586
    N   N32   0.501486  0.158065  0.089073  -0.436904
