# Generated by REPEAT Assigner based on pymatgen
data_DB0-m2_o1_o2_f0_pcu.sym.25
_audit_creation_date              2022-05-24
_audit_creation_method            REPEAT_Assigner
_cell_length_a                    11.011432
_cell_length_b                    9.495534
_cell_length_c                    15.282422
_cell_angle_alpha                 90.000000
_cell_angle_beta                  90.005981
_cell_angle_gamma                 90.000000
_cell_volume                      1597.921369
_symmetry_space_group_name_H-M    P1
_symmetry_Int_Tables_number       1
loop_
    _symmetry_equiv_pos_site_id
    _symmetry_equiv_pos_as_xyz
    1  x,y,z
loop_
    _atom_site_type_symbol
    _atom_site_label
    _atom_site_fract_x
    _atom_site_fract_y
    _atom_site_fract_z
    _atom_type_partial_charge
    O   O1   0.329983  0.626979  0.497967  -0.528298
    O   O2   0.679363  0.376605  0.502616  -0.432216
    O   O3   0.682776  0.616776  0.507933  -0.431639
    O   O4   0.326369  0.386636  0.497345  -0.408106
    N   N1   0.510674  0.853922  0.496923  -0.301057
    N   N2   0.498240  0.149481  0.506068  -0.139992
    C   C1   0.269450  0.507931  0.498965  0.526496
    C   C2   0.740027  0.495639  0.504167  0.454875
    O   O5   0.510617  0.616607  0.372888  -0.403637
    O   O6   0.500992  0.387414  0.629997  -0.502560
    O   O7   0.493819  0.626977  0.626916  -0.489797
    O   O8   0.511282  0.376641  0.375808  -0.457440
    C   C3   0.514934  0.495489  0.331907  0.509478
    C   C4   0.489792  0.508227  0.670620  0.649548
    Cu  Cu1  0.507032  0.642321  0.499730  0.714331
    Cu  Cu2  0.502256  0.361163  0.503220  0.663091
    C   C5   0.427303  0.074885  0.449703  0.057997
    C   C6   0.581374  0.927747  0.553610  0.236477
    C   C7   0.572403  0.074316  0.560312  -0.044105
    C   C8   0.438454  0.929064  0.442000  0.215973
    C   C9   0.071542  0.392506  0.537527  0.121549
    C   C10  0.938625  0.612573  0.467563  0.013067
    C   C11  0.945581  0.383498  0.531887  -0.274198
    C   C12  0.064808  0.618835  0.469546  -0.179148
    C   C13  0.540782  0.616156  0.094934  -0.110767
    C   C14  0.489114  0.382909  0.905413  -0.139939
    C   C15  0.465378  0.630026  0.907754  -0.198343
    C   C16  0.456321  0.387593  0.096782  -0.118327
    H   H1   0.575657  0.705060  0.058915  0.123759
    H   H2   0.501170  0.284067  0.938731  0.102911
    H   H3   0.452760  0.727111  0.943324  0.179320
    H   H4   0.415643  0.298957  0.063997  0.157416
    C   C17  0.551591  0.614492  0.185364  0.016468
    C   C18  0.473868  0.382131  0.815662  0.138558
    C   C19  0.465084  0.634204  0.817142  0.069472
    C   C20  0.474619  0.378243  0.185943  -0.107077
    C   C21  0.517347  0.494471  0.233562  -0.115724
    C   C22  0.476445  0.509078  0.768431  -0.273579
    C   C23  0.491994  0.504163  0.049726  0.102568
    C   C24  0.483878  0.506122  0.952793  0.091171
    C   C25  0.876455  0.495363  0.499702  0.025819
    C   C26  0.133466  0.508597  0.503892  -0.060445
    C   C27  0.325049  0.141468  0.402944  0.405615
    H   H5   0.331639  0.243776  0.373684  0.024166
    O   O9   0.226942  0.082064  0.399386  -0.341249
    C   C28  0.681327  0.858049  0.601202  0.416694
    H   H6   0.667976  0.763645  0.638870  -0.002952
    O   O10  0.783246  0.908184  0.599267  -0.394856
    C   C29  0.635753  0.142129  0.634601  0.566385
    H   H7   0.670697  0.246989  0.631176  -0.052803
    O   O11  0.646242  0.081155  0.704423  -0.440855
    C   C30  0.382816  0.862504  0.364750  0.273906
    H   H8   0.342416  0.760117  0.367341  0.066414
    O   O12  0.387774  0.920650  0.293739  -0.288128
    C   C31  0.607308  0.740007  0.225186  0.363658
    H   H9   0.652718  0.734954  0.287243  0.011254
    O   O13  0.608513  0.851587  0.185696  -0.404853
    C   C32  0.441041  0.245218  0.776695  0.218916
    H   H10  0.387162  0.239197  0.717711  0.069579
    O   O14  0.458958  0.136507  0.817094  -0.286689
    C   C33  0.442231  0.773477  0.778429  0.446195
    H   H11  0.494452  0.813308  0.724277  -0.039552
    O   O15  0.368367  0.851784  0.812546  -0.439170
    C   C34  0.449008  0.240289  0.224781  0.601074
    H   H12  0.510834  0.193866  0.271671  -0.078192
    O   O16  0.364483  0.169936  0.197461  -0.457176
    C   C35  0.138065  0.281231  0.584717  0.286611
    H   H13  0.209114  0.310197  0.630340  -0.018734
    O   O17  0.119403  0.156824  0.570029  -0.344788
    C   C36  0.872222  0.727352  0.424247  0.365235
    H   H14  0.799411  0.701877  0.379992  -0.005177
    O   O18  0.895502  0.850621  0.439205  -0.327180
    C   C37  0.887974  0.254924  0.563830  0.666394
    H   H15  0.896283  0.225850  0.632217  -0.037723
    O   O19  0.845529  0.171008  0.511732  -0.412716
    C   C38  0.123738  0.741041  0.429773  0.673200
    H   H16  0.176321  0.812270  0.470164  -0.076654
    O   O20  0.108676  0.767186  0.352349  -0.459802
