# Generated by REPEAT Assigner based on pymatgen
data_DB0-m2_o1_o2_f0_pcu.sym.10
_audit_creation_date              2022-05-24
_audit_creation_method            REPEAT_Assigner
_cell_length_a                    11.002787
_cell_length_b                    9.465637
_cell_length_c                    15.131755
_cell_angle_alpha                 90.000000
_cell_angle_beta                  90.006036
_cell_angle_gamma                 90.000000
_cell_volume                      1575.947834
_symmetry_space_group_name_H-M    P1
_symmetry_Int_Tables_number       1
loop_
    _symmetry_equiv_pos_site_id
    _symmetry_equiv_pos_as_xyz
    1  x,y,z
loop_
    _atom_site_type_symbol
    _atom_site_label
    _atom_site_fract_x
    _atom_site_fract_y
    _atom_site_fract_z
    _atom_type_partial_charge
    O   O1   0.323802  0.621425  0.501402  -0.415528
    O   O2   0.676521  0.378954  0.497043  -0.461097
    O   O3   0.677014  0.619302  0.505031  -0.360169
    O   O4   0.323297  0.379512  0.496711  -0.393104
    N   N1   0.502609  0.852762  0.500215  0.055962
    N   N2   0.500143  0.146721  0.499636  -0.159354
    C   C1   0.265413  0.500383  0.500527  0.495013
    C   C2   0.735718  0.499206  0.499784  0.479581
    O   O5   0.508218  0.620526  0.371848  -0.574931
    O   O6   0.495013  0.378345  0.628316  -0.742878
    O   O7   0.501626  0.620630  0.628614  -0.539464
    O   O8   0.496805  0.378913  0.371429  -0.728207
    C   C3   0.504440  0.499669  0.329985  0.846684
    C   C4   0.498116  0.499442  0.670041  0.810483
    Cu  Cu1  0.500687  0.640855  0.500346  0.521219
    Cu  Cu2  0.499993  0.358563  0.499678  0.941197
    C   C5   0.426649  0.071493  0.445350  0.158943
    C   C6   0.572454  0.927870  0.557081  0.047959
    C   C7   0.570427  0.073510  0.557009  0.182727
    C   C8   0.430211  0.925763  0.444235  0.050276
    C   C9   0.063310  0.374386  0.502899  0.022651
    C   C10  0.937156  0.625769  0.497542  -0.030290
    C   C11  0.938239  0.374229  0.497487  0.011574
    C   C12  0.062504  0.625920  0.501404  0.038823
    C   C13  0.534736  0.621765  0.095359  -0.282195
    C   C14  0.521692  0.378775  0.904277  -0.334445
    C   C15  0.475037  0.624518  0.903925  -0.259177
    C   C16  0.468606  0.382129  0.095253  -0.351395
    H   H1   0.564217  0.716073  0.061497  0.139396
    H   H2   0.544744  0.281253  0.937050  0.142595
    H   H3   0.453402  0.722191  0.937148  0.135328
    H   H4   0.438107  0.288068  0.061341  0.146634
    C   C17  0.534802  0.621299  0.186577  0.101190
    C   C18  0.517960  0.377768  0.813411  0.213959
    C   C19  0.475225  0.624377  0.812675  0.076108
    C   C20  0.472535  0.380756  0.186412  0.241440
    H   H5   0.561547  0.716016  0.221207  0.012324
    H   H6   0.534937  0.279840  0.779339  -0.011492
    H   H7   0.455903  0.722203  0.778327  0.015230
    H   H8   0.448417  0.285104  0.220581  -0.019281
    C   C21  0.505088  0.500292  0.232886  -0.292744
    C   C22  0.497533  0.500565  0.766960  -0.248417
    C   C23  0.501179  0.502237  0.048751  0.199700
    C   C24  0.499752  0.501994  0.951077  0.172966
    C   C25  0.871445  0.499603  0.497893  0.044811
    C   C26  0.129454  0.500277  0.502454  -0.008277
    Br  Br1  0.318183  0.156823  0.361646  0.037984
    Br  Br2  0.676541  0.841970  0.641346  0.010819
    Br  Br3  0.677817  0.162512  0.638006  0.036842
    Br  Br4  0.325958  0.836467  0.358780  0.012398
    Br  Br5  0.131640  0.189976  0.516855  -0.066372
    Br  Br6  0.867650  0.810427  0.487265  -0.040276
    Br  Br7  0.869421  0.189089  0.486388  -0.048903
    Br  Br8  0.131138  0.811283  0.509700  -0.034821
