# Generated by REPEAT Assigner based on pymatgen
data_DB0-m2_o1_o3_f0_nbo.sym.4_sqe
_audit_creation_date              2022-05-24
_audit_creation_method            REPEAT_Assigner
_cell_length_a                    21.530987
_cell_length_b                    21.530987
_cell_length_c                    38.571518
_cell_angle_alpha                 90.000000
_cell_angle_beta                  90.000000
_cell_angle_gamma                 90.000000
_cell_volume                      17881.115929
_symmetry_space_group_name_H-M    P1
_symmetry_Int_Tables_number       1
loop_
    _symmetry_equiv_pos_site_id
    _symmetry_equiv_pos_as_xyz
    1  x,y,z
loop_
    _atom_site_type_symbol
    _atom_site_label
    _atom_site_fract_x
    _atom_site_fract_y
    _atom_site_fract_z
    _atom_type_partial_charge
    O   O1    0.588432  0.051089  0.509869  -0.577334
    O   O2    0.948911  0.588432  0.509869  -0.577339
    O   O3    0.411568  0.948911  0.509869  -0.577338
    O   O4    0.051089  0.411568  0.509869  -0.577336
    O   O5    0.588432  0.948911  0.490131  -0.577347
    O   O6    0.948911  0.411568  0.490131  -0.577332
    O   O7    0.411568  0.051089  0.490131  -0.577330
    O   O8    0.051089  0.588432  0.490131  -0.577343
    O   O9    0.088432  0.551089  0.009869  -0.577324
    O   O10   0.448911  0.088432  0.009869  -0.577359
    O   O11   0.911568  0.448911  0.009869  -0.577327
    O   O12   0.551089  0.911568  0.009869  -0.577290
    O   O13   0.088432  0.448911  0.990131  -0.577327
    O   O14   0.448911  0.911568  0.990131  -0.577359
    O   O15   0.911568  0.551089  0.990131  -0.577325
    O   O16   0.551089  0.088432  0.990131  -0.577291
    C   C1    0.617514  0.000000  0.500000  0.684009
    C   C2    0.000000  0.617514  0.500000  0.684003
    C   C3    0.382486  0.000000  0.500000  0.683991
    C   C4    0.000000  0.382486  0.500000  0.683988
    C   C5    0.117514  0.500000  0.000000  0.683968
    C   C6    0.500000  0.117514  0.000000  0.683958
    C   C7    0.882486  0.500000  0.000000  0.683948
    C   C8    0.500000  0.882486  0.000000  0.683942
    O   O17   0.482433  0.051107  0.549479  -0.605968
    O   O18   0.948893  0.482433  0.549479  -0.605962
    O   O19   0.517567  0.948893  0.549479  -0.605957
    O   O20   0.051107  0.517567  0.549479  -0.605963
    O   O21   0.482433  0.948893  0.450521  -0.605967
    O   O22   0.948893  0.517567  0.450521  -0.605974
    O   O23   0.517567  0.051107  0.450521  -0.605982
    O   O24   0.051107  0.482433  0.450521  -0.605974
    O   O25   0.982433  0.551107  0.049479  -0.605970
    O   O26   0.448893  0.982433  0.049479  -0.606008
    O   O27   0.017567  0.448893  0.049479  -0.605983
    O   O28   0.551107  0.017567  0.049479  -0.605943
    O   O29   0.982433  0.448893  0.950521  -0.605961
    O   O30   0.448893  0.017567  0.950521  -0.605983
    O   O31   0.017567  0.551107  0.950521  -0.605962
    O   O32   0.551107  0.982433  0.950521  -0.605937
    C   C9    0.500000  0.000000  0.565762  0.703615
    C   C10   0.000000  0.500000  0.565762  0.703603
    C   C11   0.500000  0.000000  0.434238  0.703635
    C   C12   0.000000  0.500000  0.434238  0.703629
    C   C13   0.000000  0.500000  0.065762  0.703643
    C   C14   0.500000  0.000000  0.065762  0.703633
    C   C15   0.000000  0.500000  0.934238  0.703667
    C   C16   0.500000  0.000000  0.934238  0.703653
    Cu  Cu1   0.500000  0.060608  0.500000  0.939793
    Cu  Cu2   0.939392  0.500000  0.500000  0.939828
    Cu  Cu3   0.500000  0.939392  0.500000  0.939811
    Cu  Cu4   0.060608  0.500000  0.500000  0.939786
    Cu  Cu5   0.000000  0.560608  0.000000  0.939798
    Cu  Cu6   0.439392  0.000000  0.000000  0.939723
    Cu  Cu7   0.000000  0.439392  0.000000  0.939790
    Cu  Cu8   0.560608  0.000000  0.000000  0.939875
    C   C17   0.554672  0.991243  0.878169  -0.081656
    C   C18   0.008757  0.554672  0.878169  -0.081650
    C   C19   0.445328  0.008757  0.878169  -0.081723
    C   C20   0.991243  0.445328  0.878169  -0.081716
    C   C21   0.554672  0.008757  0.121831  -0.081691
    C   C22   0.008757  0.445328  0.121831  -0.081686
    C   C23   0.445328  0.991243  0.121831  -0.081696
    C   C24   0.991243  0.554672  0.121831  -0.081691
    C   C25   0.054672  0.491243  0.378169  -0.081698
    C   C26   0.508757  0.054672  0.378169  -0.081696
    C   C27   0.945328  0.508757  0.378169  -0.081692
    C   C28   0.491243  0.945328  0.378169  -0.081692
    C   C29   0.054672  0.508757  0.621831  -0.081681
    C   C30   0.508757  0.945328  0.621831  -0.081671
    C   C31   0.945328  0.491243  0.621831  -0.081679
    C   C32   0.491243  0.054672  0.621831  -0.081683
    H   H1    0.598194  0.984953  0.891660  0.116172
    H   H2    0.015047  0.598194  0.891660  0.116168
    H   H3    0.401806  0.015047  0.891660  0.116181
    H   H4    0.984953  0.401806  0.891660  0.116180
    H   H5    0.598194  0.015047  0.108340  0.116180
    H   H6    0.015047  0.401806  0.108340  0.116177
    H   H7    0.401806  0.984953  0.108340  0.116179
    H   H8    0.984953  0.598194  0.108340  0.116179
    H   H9    0.098194  0.484953  0.391660  0.116182
    H   H10   0.515047  0.098194  0.391660  0.116181
    H   H11   0.901806  0.515047  0.391660  0.116181
    H   H12   0.484953  0.901806  0.391660  0.116181
    H   H13   0.098194  0.515047  0.608340  0.116175
    H   H14   0.515047  0.901806  0.608340  0.116173
    H   H15   0.901806  0.484953  0.608340  0.116174
    H   H16   0.484953  0.098194  0.608340  0.116174
    C   C33   0.554723  0.991577  0.842436  -0.156893
    C   C34   0.008423  0.554723  0.842436  -0.156898
    C   C35   0.445277  0.008423  0.842436  -0.156814
    C   C36   0.991577  0.445277  0.842436  -0.156816
    C   C37   0.554723  0.008423  0.157564  -0.156887
    C   C38   0.008423  0.445277  0.157564  -0.156897
    C   C39   0.445277  0.991577  0.157564  -0.156892
    C   C40   0.991577  0.554723  0.157564  -0.156890
    C   C41   0.054723  0.491577  0.342436  -0.156882
    C   C42   0.508423  0.054723  0.342436  -0.156884
    C   C43   0.945277  0.508423  0.342436  -0.156890
    C   C44   0.491577  0.945277  0.342436  -0.156890
    C   C45   0.054723  0.508423  0.657564  -0.156911
    C   C46   0.508423  0.945277  0.657564  -0.156920
    C   C47   0.945277  0.491577  0.657564  -0.156913
    C   C48   0.491577  0.054723  0.657564  -0.156906
    H   H17   0.598484  0.986487  0.829044  0.110169
    H   H18   0.013513  0.598484  0.829044  0.110170
    H   H19   0.401516  0.013513  0.829044  0.110149
    H   H20   0.986487  0.401516  0.829044  0.110149
    H   H21   0.598484  0.013513  0.170956  0.110169
    H   H22   0.013513  0.401516  0.170956  0.110173
    H   H23   0.401516  0.986487  0.170956  0.110172
    H   H24   0.986487  0.598484  0.170956  0.110170
    H   H25   0.098484  0.486487  0.329044  0.110169
    H   H26   0.513513  0.098484  0.329044  0.110168
    H   H27   0.901516  0.513513  0.329044  0.110171
    H   H28   0.486487  0.901516  0.329044  0.110171
    H   H29   0.098484  0.513513  0.670956  0.110176
    H   H30   0.513513  0.901516  0.670956  0.110178
    H   H31   0.901516  0.486487  0.670956  0.110178
    H   H32   0.486487  0.098484  0.670956  0.110176
    C   C49   0.500000  0.000000  0.824237  0.092416
    C   C50   0.000000  0.500000  0.824237  0.092415
    C   C51   0.500000  0.000000  0.175763  0.092582
    C   C52   0.000000  0.500000  0.175763  0.092582
    C   C53   0.000000  0.500000  0.324237  0.092579
    C   C54   0.500000  0.000000  0.324237  0.092579
    C   C55   0.000000  0.500000  0.675763  0.092633
    C   C56   0.500000  0.000000  0.675763  0.092633
    C   C57   0.500000  0.000000  0.896248  -0.053067
    C   C58   0.000000  0.500000  0.896248  -0.053076
    C   C59   0.500000  0.000000  0.103752  -0.053054
    C   C60   0.000000  0.500000  0.103752  -0.053061
    C   C61   0.000000  0.500000  0.396248  -0.053053
    C   C62   0.500000  0.000000  0.396248  -0.053057
    C   C63   0.000000  0.500000  0.603752  -0.053056
    C   C64   0.500000  0.000000  0.603752  -0.053064
    C   C65   0.460956  0.039192  0.767865  -0.144380
    C   C66   0.960808  0.460956  0.767865  -0.144383
    C   C67   0.539044  0.960808  0.767865  -0.144502
    C   C68   0.039192  0.539044  0.767865  -0.144496
    C   C69   0.460956  0.960808  0.232135  -0.144210
    C   C70   0.960808  0.539044  0.232135  -0.144209
    C   C71   0.539044  0.039192  0.232135  -0.144206
    C   C72   0.039192  0.460956  0.232135  -0.144205
    C   C73   0.960956  0.539192  0.267865  -0.144220
    C   C74   0.460808  0.960956  0.267865  -0.144222
    C   C75   0.039044  0.460808  0.267865  -0.144223
    C   C76   0.539192  0.039044  0.267865  -0.144218
    C   C77   0.960956  0.460808  0.732135  -0.144139
    C   C78   0.460808  0.039044  0.732135  -0.144138
    C   C79   0.039044  0.539192  0.732135  -0.144058
    C   C80   0.539192  0.960956  0.732135  -0.144056
    H   H33   0.430723  0.071248  0.781247  0.113512
    H   H34   0.928752  0.430723  0.781247  0.113513
    H   H35   0.569277  0.928752  0.781247  0.113557
    H   H36   0.071248  0.569277  0.781247  0.113556
    H   H37   0.430723  0.928752  0.218753  0.113488
    H   H38   0.928752  0.569277  0.218753  0.113488
    H   H39   0.569277  0.071248  0.218753  0.113487
    H   H40   0.071248  0.430723  0.218753  0.113487
    H   H41   0.930723  0.571248  0.281247  0.113490
    H   H42   0.428752  0.930723  0.281247  0.113491
    H   H43   0.069277  0.428752  0.281247  0.113491
    H   H44   0.571248  0.069277  0.281247  0.113489
    H   H45   0.930723  0.428752  0.718753  0.113487
    H   H46   0.428752  0.069277  0.718753  0.113486
    H   H47   0.069277  0.571248  0.718753  0.113467
    H   H48   0.571248  0.930723  0.718753  0.113467
    C   C81   0.500000  0.000000  0.713928  0.079719
    C   C82   0.000000  0.500000  0.713928  0.079718
    C   C83   0.500000  0.000000  0.286072  0.079848
    C   C84   0.000000  0.500000  0.286072  0.079847
    C   C85   0.000000  0.500000  0.213928  0.079840
    C   C86   0.500000  0.000000  0.213928  0.079841
    C   C87   0.000000  0.500000  0.786072  0.080210
    C   C88   0.500000  0.000000  0.786072  0.080212
    C   C89   0.717566  0.960872  0.478178  -0.169531
    C   C90   0.039128  0.717566  0.478178  -0.169532
    C   C91   0.282434  0.039128  0.478178  -0.169530
    C   C92   0.960872  0.282434  0.478178  -0.169534
    C   C93   0.717566  0.039128  0.521822  -0.169514
    C   C94   0.039128  0.282434  0.521822  -0.169519
    C   C95   0.282434  0.960872  0.521822  -0.169517
    C   C96   0.960872  0.717566  0.521822  -0.169515
    C   C97   0.217566  0.460872  0.978178  -0.169532
    C   C98   0.539128  0.217566  0.978178  -0.169531
    C   C99   0.782434  0.539128  0.978178  -0.169536
    C   C100  0.460872  0.782434  0.978178  -0.169544
    C   C101  0.217566  0.539128  0.021822  -0.169523
    C   C102  0.539128  0.782434  0.021822  -0.169525
    C   C103  0.782434  0.460872  0.021822  -0.169531
    C   C104  0.460872  0.217566  0.021822  -0.169534
    H   H49   0.692836  0.930344  0.460742  0.104750
    H   H50   0.069656  0.692836  0.460742  0.104749
    H   H51   0.307164  0.069656  0.460742  0.104745
    H   H52   0.930344  0.307164  0.460742  0.104748
    H   H53   0.692836  0.069656  0.539258  0.104744
    H   H54   0.069656  0.307164  0.539258  0.104743
    H   H55   0.307164  0.930344  0.539258  0.104744
    H   H56   0.930344  0.692836  0.539258  0.104744
    H   H57   0.192836  0.430344  0.960742  0.104751
    H   H58   0.569656  0.192836  0.960742  0.104750
    H   H59   0.807164  0.569656  0.960742  0.104750
    H   H60   0.430344  0.807164  0.960742  0.104754
    H   H61   0.192836  0.569656  0.039258  0.104743
    H   H62   0.569656  0.807164  0.039258  0.104743
    H   H63   0.807164  0.430344  0.039258  0.104745
    H   H64   0.430344  0.192836  0.039258  0.104749
    C   C105  0.781545  0.962247  0.477149  -0.012127
    C   C106  0.037753  0.781545  0.477149  -0.012126
    C   C107  0.218455  0.037753  0.477149  -0.012103
    C   C108  0.962247  0.218455  0.477149  -0.012100
    C   C109  0.781545  0.037753  0.522851  -0.012143
    C   C110  0.037753  0.218455  0.522851  -0.012120
    C   C111  0.218455  0.962247  0.522851  -0.012120
    C   C112  0.962247  0.781545  0.522851  -0.012144
    C   C113  0.281545  0.462247  0.977149  -0.012130
    C   C114  0.537753  0.281545  0.977149  -0.012114
    C   C115  0.718455  0.537753  0.977149  -0.012110
    C   C116  0.462247  0.718455  0.977149  -0.012105
    C   C117  0.281545  0.537753  0.022851  -0.012148
    C   C118  0.537753  0.718455  0.022851  -0.012134
    C   C119  0.718455  0.462247  0.022851  -0.012129
    C   C120  0.462247  0.281545  0.022851  -0.012140
    C   C121  0.814185  0.000000  0.500000  0.027272
    C   C122  0.000000  0.814185  0.500000  0.027270
    C   C123  0.185815  0.000000  0.500000  0.027243
    C   C124  0.000000  0.185815  0.500000  0.027241
    C   C125  0.314185  0.500000  0.000000  0.027281
    C   C126  0.500000  0.314185  0.000000  0.027267
    C   C127  0.685815  0.500000  0.000000  0.027258
    C   C128  0.500000  0.685815  0.000000  0.027255
    C   C129  0.685403  0.000000  0.500000  0.000960
    C   C130  0.000000  0.685403  0.500000  0.000965
    C   C131  0.314597  0.000000  0.500000  0.000963
    C   C132  0.000000  0.314597  0.500000  0.000967
    C   C133  0.185403  0.500000  0.000000  0.000979
    C   C134  0.500000  0.185403  0.000000  0.000984
    C   C135  0.814597  0.500000  0.000000  0.000994
    C   C136  0.500000  0.814597  0.000000  0.000998
    O   O33   0.018884  0.088399  0.471768  -0.354667
    O   O34   0.911601  0.018884  0.471768  -0.354668
    O   O35   0.981116  0.911601  0.471768  -0.354666
    O   O36   0.088399  0.981116  0.471768  -0.354672
    O   O37   0.018884  0.911601  0.528232  -0.354654
    O   O38   0.911601  0.981116  0.528232  -0.354643
    O   O39   0.981116  0.088399  0.528232  -0.354653
    O   O40   0.088399  0.018884  0.528232  -0.354648
    O   O41   0.518884  0.588399  0.971768  -0.354652
    O   O42   0.411601  0.518884  0.971768  -0.354639
    O   O43   0.481116  0.411601  0.971768  -0.354642
    O   O44   0.588399  0.481116  0.971768  -0.354644
    O   O45   0.518884  0.411601  0.028232  -0.354643
    O   O46   0.411601  0.481116  0.028232  -0.354637
    O   O47   0.481116  0.588399  0.028232  -0.354653
    O   O48   0.588399  0.518884  0.028232  -0.354647
    C   C137  0.000000  0.117654  0.500000  0.348724
    C   C138  0.882346  0.000000  0.500000  0.348687
    C   C139  0.000000  0.882346  0.500000  0.348693
    C   C140  0.117654  0.000000  0.500000  0.348719
    C   C141  0.500000  0.617654  0.000000  0.348705
    C   C142  0.382346  0.500000  0.000000  0.348661
    C   C143  0.500000  0.382346  0.000000  0.348681
    C   C144  0.617654  0.500000  0.000000  0.348695
    Cu  Cu9   0.000000  0.000000  0.466389  0.698384
    Cu  Cu10  0.000000  0.000000  0.533611  0.698409
    Cu  Cu11  0.500000  0.500000  0.966389  0.698367
    Cu  Cu12  0.500000  0.500000  0.033611  0.698401
    C   C145  0.813289  0.919657  0.453498  0.270032
    C   C146  0.808694  0.856612  0.458966  -0.199656
    C   C147  0.838752  0.815626  0.437257  -0.118585
    C   C148  0.871840  0.837615  0.409257  -0.100321
    C   C149  0.873783  0.900487  0.402635  -0.087302
    C   C150  0.843895  0.941403  0.424476  -0.257940
    H   H65   0.781590  0.839395  0.480447  0.129370
    H   H66   0.836127  0.766256  0.442111  0.102980
    H   H67   0.895417  0.805525  0.392195  0.093958
    H   H68   0.898667  0.917720  0.380281  0.104257
    H   H69   0.844589  0.990507  0.418797  0.134575
    C   C151  0.080343  0.813289  0.453498  0.270031
    C   C152  0.143388  0.808694  0.458966  -0.199664
    C   C153  0.184374  0.838752  0.437257  -0.118577
    C   C154  0.162385  0.871840  0.409257  -0.100328
    C   C155  0.099513  0.873783  0.402635  -0.087297
    C   C156  0.058597  0.843895  0.424476  -0.257939
    H   H70   0.160605  0.781590  0.480447  0.129377
    H   H71   0.233744  0.836127  0.442111  0.102982
    H   H72   0.194475  0.895417  0.392195  0.093958
    H   H73   0.082280  0.898667  0.380281  0.104256
    H   H74   0.009493  0.844589  0.418797  0.134574
    C   C157  0.186712  0.080343  0.453498  0.270002
    C   C158  0.191306  0.143388  0.458966  -0.199618
    C   C159  0.161248  0.184374  0.437257  -0.118585
    C   C160  0.128160  0.162385  0.409257  -0.100335
    C   C161  0.126217  0.099513  0.402635  -0.087290
    C   C162  0.156105  0.058597  0.424476  -0.257942
    H   H75   0.218410  0.160605  0.480447  0.129346
    H   H76   0.163873  0.233744  0.442111  0.102984
    H   H77   0.104583  0.194475  0.392195  0.093960
    H   H78   0.101333  0.082280  0.380281  0.104256
    H   H79   0.155411  0.009493  0.418797  0.134575
    C   C163  0.919657  0.186712  0.453498  0.270001
    C   C164  0.856612  0.191306  0.458966  -0.199612
    C   C165  0.815626  0.161248  0.437257  -0.118593
    C   C166  0.837615  0.128160  0.409257  -0.100329
    C   C167  0.900487  0.126217  0.402635  -0.087297
    C   C168  0.941403  0.156105  0.424476  -0.257939
    H   H80   0.839395  0.218410  0.480447  0.129341
    H   H81   0.766256  0.163873  0.442111  0.102982
    H   H82   0.805525  0.104583  0.392195  0.093960
    H   H83   0.917720  0.101333  0.380281  0.104257
    H   H84   0.990507  0.155411  0.418797  0.134574
    C   C169  0.813289  0.080343  0.546502  0.270041
    C   C170  0.808694  0.143388  0.541034  -0.199661
    C   C171  0.838752  0.184374  0.562743  -0.118570
    C   C172  0.871840  0.162385  0.590743  -0.100337
    C   C173  0.873783  0.099513  0.597365  -0.087310
    C   C174  0.843895  0.058597  0.575524  -0.257939
    H   H85   0.781590  0.160605  0.519553  0.129373
    H   H86   0.836127  0.233744  0.557889  0.102979
    H   H87   0.895417  0.194475  0.607805  0.093962
    H   H88   0.898667  0.082280  0.619719  0.104263
    H   H89   0.844589  0.009493  0.581203  0.134574
    C   C175  0.080343  0.186712  0.546502  0.270011
    C   C176  0.143388  0.191306  0.541034  -0.199618
    C   C177  0.184374  0.161248  0.562743  -0.118576
    C   C178  0.162385  0.128160  0.590743  -0.100345
    C   C179  0.099513  0.126217  0.597365  -0.087304
    C   C180  0.058597  0.156105  0.575524  -0.257939
    H   H90   0.160605  0.218410  0.519553  0.129345
    H   H91   0.233744  0.163873  0.557889  0.102981
    H   H92   0.194475  0.104583  0.607805  0.093964
    H   H93   0.082280  0.101333  0.619719  0.104263
    H   H94   0.009493  0.155411  0.581203  0.134575
    C   C181  0.186712  0.919657  0.546502  0.270012
    C   C182  0.191306  0.856612  0.541034  -0.199612
    C   C183  0.161248  0.815626  0.562743  -0.118584
    C   C184  0.128160  0.837615  0.590743  -0.100335
    C   C185  0.126217  0.900487  0.597365  -0.087308
    C   C186  0.156105  0.941403  0.575524  -0.257938
    H   H95   0.218410  0.839395  0.519553  0.129338
    H   H96   0.163873  0.766256  0.557889  0.102979
    H   H97   0.104583  0.805525  0.607805  0.093963
    H   H98   0.101333  0.917720  0.619719  0.104263
    H   H99   0.155411  0.990507  0.581203  0.134575
    C   C187  0.919657  0.813289  0.546502  0.270041
    C   C188  0.856612  0.808694  0.541034  -0.199654
    C   C189  0.815626  0.838752  0.562743  -0.118578
    C   C190  0.837615  0.871840  0.590743  -0.100329
    C   C191  0.900487  0.873783  0.597365  -0.087317
    C   C192  0.941403  0.843895  0.575524  -0.257935
    H   H100  0.839395  0.781590  0.519553  0.129367
    H   H101  0.766256  0.836127  0.557889  0.102978
    H   H102  0.805525  0.895417  0.607805  0.093962
    H   H103  0.917720  0.898667  0.619719  0.104265
    H   H104  0.990507  0.844589  0.581203  0.134573
    C   C193  0.313289  0.419657  0.953498  0.270040
    C   C194  0.308694  0.356612  0.958966  -0.199666
    C   C195  0.338752  0.315626  0.937257  -0.118576
    C   C196  0.371840  0.337615  0.909257  -0.100329
    C   C197  0.373783  0.400487  0.902635  -0.087290
    C   C198  0.343895  0.441403  0.924476  -0.257958
    H   H105  0.281590  0.339395  0.980447  0.129370
    H   H106  0.336127  0.266256  0.942111  0.102976
    H   H107  0.395417  0.305525  0.892195  0.093957
    H   H108  0.398667  0.417720  0.880281  0.104255
    H   H109  0.344589  0.490507  0.918797  0.134584
    C   C199  0.580343  0.313289  0.953498  0.270016
    C   C200  0.643388  0.308694  0.958966  -0.199638
    C   C201  0.684374  0.338752  0.937257  -0.118572
    C   C202  0.662385  0.371840  0.909257  -0.100339
    C   C203  0.599513  0.373783  0.902635  -0.087285
    C   C204  0.558597  0.343895  0.924476  -0.257954
    H   H110  0.660605  0.281590  0.980447  0.129353
    H   H111  0.733744  0.336127  0.942111  0.102981
    H   H112  0.694475  0.395417  0.892195  0.093957
    H   H113  0.582280  0.398667  0.880281  0.104254
    H   H114  0.509493  0.344589  0.918797  0.134580
    C   C205  0.686712  0.580343  0.953498  0.270013
    C   C206  0.691306  0.643388  0.958966  -0.199633
    C   C207  0.661248  0.684374  0.937257  -0.118570
    C   C208  0.628160  0.662385  0.909257  -0.100340
    C   C209  0.626217  0.599513  0.902635  -0.087281
    C   C210  0.656105  0.558597  0.924476  -0.257959
    H   H115  0.718410  0.660605  0.980447  0.129347
    H   H116  0.663873  0.733744  0.942111  0.102981
    H   H117  0.604583  0.694475  0.892195  0.093956
    H   H118  0.601333  0.582280  0.880281  0.104254
    H   H119  0.655411  0.509493  0.918797  0.134584
    C   C211  0.419657  0.686712  0.953498  0.270011
    C   C212  0.356612  0.691306  0.958966  -0.199631
    C   C213  0.315626  0.661248  0.937257  -0.118577
    C   C214  0.337615  0.628160  0.909257  -0.100336
    C   C215  0.400487  0.626217  0.902635  -0.087289
    C   C216  0.441403  0.656105  0.924476  -0.257954
    H   H120  0.339395  0.718410  0.980447  0.129341
    H   H121  0.266256  0.663873  0.942111  0.102979
    H   H122  0.305525  0.604583  0.892195  0.093959
    H   H123  0.417720  0.601333  0.880281  0.104256
    H   H124  0.490507  0.655411  0.918797  0.134583
    C   C217  0.313289  0.580343  0.046502  0.270044
    C   C218  0.308694  0.643388  0.041034  -0.199663
    C   C219  0.338752  0.684374  0.062743  -0.118565
    C   C220  0.371840  0.662385  0.090743  -0.100340
    C   C221  0.373783  0.599513  0.097365  -0.087301
    C   C222  0.343895  0.558597  0.075524  -0.257948
    H   H125  0.281590  0.660605  0.019553  0.129377
    H   H126  0.336127  0.733744  0.057889  0.102975
    H   H127  0.395417  0.694475  0.107805  0.093961
    H   H128  0.398667  0.582280  0.119719  0.104261
    H   H129  0.344589  0.509493  0.081203  0.134579
    C   C223  0.580343  0.686712  0.046502  0.270023
    C   C224  0.643388  0.691306  0.041034  -0.199624
    C   C225  0.684374  0.661248  0.062743  -0.118572
    C   C226  0.662385  0.628160  0.090743  -0.100346
    C   C227  0.599513  0.626217  0.097365  -0.087298
    C   C228  0.558597  0.656105  0.075524  -0.257952
    H   H130  0.660605  0.718410  0.019553  0.129350
    H   H131  0.733744  0.663873  0.057889  0.102979
    H   H132  0.694475  0.604583  0.107805  0.093963
    H   H133  0.582280  0.601333  0.119719  0.104261
    H   H134  0.509493  0.655411  0.081203  0.134579
    C   C229  0.686712  0.419657  0.046502  0.270024
    C   C230  0.691306  0.356612  0.041034  -0.199625
    C   C231  0.661248  0.315626  0.062743  -0.118570
    C   C232  0.628160  0.337615  0.090743  -0.100349
    C   C233  0.626217  0.400487  0.097365  -0.087297
    C   C234  0.656105  0.441403  0.075524  -0.257951
    H   H135  0.718410  0.339395  0.019553  0.129346
    H   H136  0.663873  0.266256  0.057889  0.102979
    H   H137  0.604583  0.305525  0.107805  0.093964
    H   H138  0.601333  0.417720  0.119719  0.104260
    H   H139  0.655411  0.490507  0.081203  0.134580
    C   C235  0.419657  0.313289  0.046502  0.270047
    C   C236  0.356612  0.308694  0.041034  -0.199666
    C   C237  0.315626  0.338752  0.062743  -0.118565
    C   C238  0.337615  0.371840  0.090743  -0.100336
    C   C239  0.400487  0.373783  0.097365  -0.087309
    C   C240  0.441403  0.343895  0.075524  -0.257945
    H   H140  0.339395  0.281590  0.019553  0.129368
    H   H141  0.266256  0.336127  0.057889  0.102973
    H   H142  0.305525  0.395417  0.107805  0.093962
    H   H143  0.417720  0.398667  0.119719  0.104262
    H   H144  0.490507  0.344589  0.081203  0.134579
