# Generated by REPEAT Assigner based on pymatgen
data_DB0-m2_o1_o3_f0_nbo.sym.54_sqe
_audit_creation_date              2022-05-24
_audit_creation_method            REPEAT_Assigner
_cell_length_a                    21.544053
_cell_length_b                    21.544053
_cell_length_c                    38.574127
_cell_angle_alpha                 90.000000
_cell_angle_beta                  90.000000
_cell_angle_gamma                 90.000000
_cell_volume                      17904.035011
_symmetry_space_group_name_H-M    P1
_symmetry_Int_Tables_number       1
loop_
    _symmetry_equiv_pos_site_id
    _symmetry_equiv_pos_as_xyz
    1  x,y,z
loop_
    _atom_site_type_symbol
    _atom_site_label
    _atom_site_fract_x
    _atom_site_fract_y
    _atom_site_fract_z
    _atom_type_partial_charge
    O   O1    0.588418  0.051098  0.509756  -0.608786
    O   O2    0.948902  0.588418  0.509756  -0.608637
    O   O3    0.411582  0.948902  0.509756  -0.608747
    O   O4    0.051098  0.411582  0.509756  -0.608725
    O   O5    0.588418  0.948902  0.490244  -0.608735
    O   O6    0.948902  0.411582  0.490244  -0.608650
    O   O7    0.411582  0.051098  0.490244  -0.608785
    O   O8    0.051098  0.588418  0.490244  -0.608702
    O   O9    0.088418  0.551098  0.009756  -0.608827
    O   O10   0.448902  0.088418  0.009756  -0.608703
    O   O11   0.911582  0.448902  0.009756  -0.608745
    O   O12   0.551098  0.911582  0.009756  -0.608717
    O   O13   0.088418  0.448902  0.990244  -0.608750
    O   O14   0.448902  0.911582  0.990244  -0.608698
    O   O15   0.911582  0.551098  0.990244  -0.608812
    O   O16   0.551098  0.088418  0.990244  -0.608714
    C   C1    0.617533  0.000000  0.500000  0.729361
    C   C2    0.000000  0.617533  0.500000  0.729278
    C   C3    0.382467  0.000000  0.500000  0.729309
    C   C4    0.000000  0.382467  0.500000  0.729376
    C   C5    0.117533  0.500000  0.000000  0.729406
    C   C6    0.500000  0.117533  0.000000  0.729362
    C   C7    0.882467  0.500000  0.000000  0.729375
    C   C8    0.500000  0.882467  0.000000  0.729479
    O   O17   0.482627  0.051120  0.549497  -0.598450
    O   O18   0.948880  0.482627  0.549497  -0.598340
    O   O19   0.517373  0.948880  0.549497  -0.598429
    O   O20   0.051120  0.517373  0.549497  -0.598381
    O   O21   0.482627  0.948880  0.450503  -0.598420
    O   O22   0.948880  0.517373  0.450503  -0.598329
    O   O23   0.517373  0.051120  0.450503  -0.598447
    O   O24   0.051120  0.482627  0.450503  -0.598381
    O   O25   0.982627  0.551120  0.049497  -0.598441
    O   O26   0.448879  0.982627  0.049497  -0.598361
    O   O27   0.017373  0.448879  0.049497  -0.598408
    O   O28   0.551120  0.017373  0.049497  -0.598355
    O   O29   0.982627  0.448879  0.950503  -0.598415
    O   O30   0.448879  0.017373  0.950503  -0.598371
    O   O31   0.017373  0.551120  0.950503  -0.598457
    O   O32   0.551120  0.982627  0.950503  -0.598367
    C   C9    0.500000  0.000000  0.565780  0.684887
    C   C10   0.000000  0.500000  0.565780  0.684847
    C   C11   0.500000  0.000000  0.434220  0.684877
    C   C12   0.000000  0.500000  0.434220  0.684834
    C   C13   0.000000  0.500000  0.065780  0.684840
    C   C14   0.500000  0.000000  0.065780  0.684847
    C   C15   0.000000  0.500000  0.934220  0.684816
    C   C16   0.500000  0.000000  0.934220  0.684815
    Cu  Cu1   0.500000  0.060598  0.500000  0.963653
    Cu  Cu2   0.939402  0.500000  0.500000  0.964058
    Cu  Cu3   0.500000  0.939402  0.500000  0.963651
    Cu  Cu4   0.060597  0.500000  0.500000  0.963909
    Cu  Cu5   0.000000  0.560597  0.000000  0.963547
    Cu  Cu6   0.439402  0.000000  0.000000  0.963944
    Cu  Cu7   0.000000  0.439402  0.000000  0.963751
    Cu  Cu8   0.560597  0.000000  0.000000  0.963985
    C   C17   0.554656  0.991349  0.878154  -0.083561
    C   C18   0.008651  0.554656  0.878154  -0.083581
    C   C19   0.445344  0.008651  0.878154  -0.083590
    C   C20   0.991349  0.445344  0.878154  -0.083591
    C   C21   0.554656  0.008651  0.121846  -0.083561
    C   C22   0.008651  0.445344  0.121846  -0.083594
    C   C23   0.445344  0.991349  0.121846  -0.083576
    C   C24   0.991349  0.554656  0.121846  -0.083567
    C   C25   0.054656  0.491349  0.378154  -0.083568
    C   C26   0.508651  0.054656  0.378154  -0.083570
    C   C27   0.945344  0.508651  0.378154  -0.083586
    C   C28   0.491349  0.945344  0.378154  -0.083583
    C   C29   0.054656  0.508651  0.621846  -0.083575
    C   C30   0.508651  0.945344  0.621846  -0.083595
    C   C31   0.945344  0.491349  0.621846  -0.083588
    C   C32   0.491349  0.054656  0.621846  -0.083570
    H   H1    0.598163  0.985140  0.891643  0.118534
    H   H2    0.014859  0.598163  0.891643  0.118536
    H   H3    0.401837  0.014860  0.891643  0.118543
    H   H4    0.985140  0.401837  0.891643  0.118540
    H   H5    0.598163  0.014860  0.108357  0.118535
    H   H6    0.014859  0.401837  0.108357  0.118543
    H   H7    0.401837  0.985140  0.108357  0.118541
    H   H8    0.985140  0.598163  0.108357  0.118534
    H   H9    0.098163  0.485140  0.391643  0.118537
    H   H10   0.514860  0.098163  0.391643  0.118534
    H   H11   0.901837  0.514860  0.391643  0.118541
    H   H12   0.485140  0.901837  0.391643  0.118536
    H   H13   0.098163  0.514860  0.608357  0.118543
    H   H14   0.514860  0.901837  0.608357  0.118543
    H   H15   0.901837  0.485140  0.608357  0.118547
    H   H16   0.485140  0.098163  0.608357  0.118538
    C   C33   0.554704  0.991673  0.842424  -0.159016
    C   C34   0.008327  0.554704  0.842424  -0.159023
    C   C35   0.445296  0.008327  0.842424  -0.158986
    C   C36   0.991673  0.445296  0.842424  -0.159007
    C   C37   0.554704  0.008327  0.157576  -0.159005
    C   C38   0.008327  0.445296  0.157576  -0.158997
    C   C39   0.445296  0.991673  0.157576  -0.158992
    C   C40   0.991673  0.554704  0.157576  -0.159026
    C   C41   0.054704  0.491673  0.342424  -0.159007
    C   C42   0.508327  0.054704  0.342424  -0.159014
    C   C43   0.945296  0.508327  0.342424  -0.158978
    C   C44   0.491673  0.945296  0.342424  -0.158995
    C   C45   0.054704  0.508327  0.657576  -0.158998
    C   C46   0.508327  0.945296  0.657576  -0.158988
    C   C47   0.945296  0.491673  0.657576  -0.158981
    C   C48   0.491673  0.054704  0.657576  -0.159016
    H   H17   0.598442  0.986653  0.829029  0.112414
    H   H18   0.013347  0.598442  0.829029  0.112418
    H   H19   0.401558  0.013347  0.829029  0.112406
    H   H20   0.986653  0.401558  0.829029  0.112410
    H   H21   0.598442  0.013347  0.170971  0.112411
    H   H22   0.013347  0.401558  0.170971  0.112407
    H   H23   0.401558  0.986653  0.170971  0.112405
    H   H24   0.986653  0.598442  0.170971  0.112415
    H   H25   0.098442  0.486653  0.329029  0.112411
    H   H26   0.513347  0.098442  0.329029  0.112411
    H   H27   0.901558  0.513347  0.329029  0.112402
    H   H28   0.486653  0.901558  0.329029  0.112407
    H   H29   0.098442  0.513347  0.670971  0.112406
    H   H30   0.513347  0.901558  0.670971  0.112402
    H   H31   0.901558  0.486653  0.670971  0.112401
    H   H32   0.486653  0.098442  0.670971  0.112410
    C   C49   0.500000  0.000000  0.824228  0.099809
    C   C50   0.000000  0.500000  0.824228  0.099809
    C   C51   0.500000  0.000000  0.175772  0.099813
    C   C52   0.000000  0.500000  0.175772  0.099813
    C   C53   0.000000  0.500000  0.324228  0.099804
    C   C54   0.500000  0.000000  0.324228  0.099804
    C   C55   0.000000  0.500000  0.675772  0.099809
    C   C56   0.500000  0.000000  0.675772  0.099808
    C   C57   0.500000  0.000000  0.896232  -0.049314
    C   C58   0.000000  0.500000  0.896232  -0.049315
    C   C59   0.500000  0.000000  0.103768  -0.049348
    C   C60   0.000000  0.500000  0.103768  -0.049345
    C   C61   0.000000  0.500000  0.396232  -0.049335
    C   C62   0.500000  0.000000  0.396232  -0.049364
    C   C63   0.000000  0.500000  0.603768  -0.049342
    C   C64   0.500000  0.000000  0.603768  -0.049368
    C   C65   0.460975  0.039165  0.767864  -0.141706
    C   C66   0.960834  0.460975  0.767864  -0.141692
    C   C67   0.539025  0.960834  0.767864  -0.141697
    C   C68   0.039165  0.539025  0.767864  -0.141702
    C   C69   0.460975  0.960834  0.232136  -0.141706
    C   C70   0.960834  0.539025  0.232136  -0.141706
    C   C71   0.539025  0.039165  0.232136  -0.141719
    C   C72   0.039165  0.460975  0.232136  -0.141713
    C   C73   0.960975  0.539165  0.267864  -0.141713
    C   C74   0.460834  0.960975  0.267864  -0.141702
    C   C75   0.039025  0.460834  0.267864  -0.141707
    C   C76   0.539165  0.039025  0.267864  -0.141702
    C   C77   0.960975  0.460834  0.732136  -0.141721
    C   C78   0.460834  0.039025  0.732136  -0.141711
    C   C79   0.039025  0.539165  0.732136  -0.141725
    C   C80   0.539165  0.960975  0.732136  -0.141717
    H   H33   0.430756  0.071193  0.781248  0.114312
    H   H34   0.928807  0.430756  0.781248  0.114315
    H   H35   0.569244  0.928807  0.781248  0.114315
    H   H36   0.071193  0.569244  0.781248  0.114316
    H   H37   0.430756  0.928807  0.218752  0.114317
    H   H38   0.928807  0.569244  0.218752  0.114321
    H   H39   0.569244  0.071193  0.218752  0.114317
    H   H40   0.071193  0.430756  0.218752  0.114317
    H   H41   0.930756  0.571193  0.281248  0.114315
    H   H42   0.428807  0.930756  0.281248  0.114316
    H   H43   0.069244  0.428807  0.281248  0.114319
    H   H44   0.571193  0.069244  0.281248  0.114318
    H   H45   0.930756  0.428807  0.718752  0.114319
    H   H46   0.428807  0.069244  0.718752  0.114321
    H   H47   0.069244  0.571193  0.718752  0.114322
    H   H48   0.571193  0.930756  0.718752  0.114318
    C   C81   0.500000  0.000000  0.713933  0.073323
    C   C82   0.000000  0.500000  0.713933  0.073310
    C   C83   0.500000  0.000000  0.286067  0.073318
    C   C84   0.000000  0.500000  0.286067  0.073307
    C   C85   0.000000  0.500000  0.213933  0.073317
    C   C86   0.500000  0.000000  0.213933  0.073304
    C   C87   0.000000  0.500000  0.786067  0.073313
    C   C88   0.500000  0.000000  0.786067  0.073300
    C   C89   0.717631  0.956753  0.480734  -0.300580
    C   C90   0.043247  0.717631  0.480734  -0.300777
    C   C91   0.282369  0.043247  0.480734  -0.300803
    C   C92   0.956753  0.282369  0.480734  -0.300583
    C   C93   0.717631  0.043247  0.519266  -0.300364
    C   C94   0.043247  0.282369  0.519266  -0.300371
    C   C95   0.282369  0.956753  0.519266  -0.300799
    C   C96   0.956753  0.717631  0.519266  -0.300773
    C   C97   0.217631  0.456753  0.980734  -0.300579
    C   C98   0.543247  0.217631  0.980734  -0.300770
    C   C99   0.782369  0.543247  0.980734  -0.300795
    C   C100  0.456753  0.782369  0.980734  -0.300572
    C   C101  0.217631  0.543247  0.019266  -0.300360
    C   C102  0.543247  0.782369  0.019266  -0.300353
    C   C103  0.782369  0.456753  0.019266  -0.300791
    C   C104  0.456753  0.217631  0.019266  -0.300766
    H   H49   0.692812  0.923082  0.465281  0.171095
    H   H50   0.076918  0.692812  0.465281  0.171130
    H   H51   0.307188  0.076918  0.465281  0.171141
    H   H52   0.923082  0.307188  0.465281  0.171104
    H   H53   0.692812  0.076918  0.534719  0.171028
    H   H54   0.076918  0.307188  0.534719  0.171037
    H   H55   0.307188  0.923082  0.534719  0.171135
    H   H56   0.923082  0.692812  0.534719  0.171124
    H   H57   0.192812  0.423082  0.965281  0.171097
    H   H58   0.576918  0.192812  0.965281  0.171131
    H   H59   0.807188  0.576918  0.965281  0.171139
    H   H60   0.423082  0.807188  0.965281  0.171101
    H   H61   0.192812  0.576918  0.034719  0.171034
    H   H62   0.576918  0.807188  0.034719  0.171036
    H   H63   0.807188  0.423082  0.034719  0.171137
    H   H64   0.423082  0.192812  0.034719  0.171131
    C   C105  0.781658  0.956735  0.480351  0.240296
    C   C106  0.043265  0.781658  0.480351  0.240460
    C   C107  0.218342  0.043265  0.480351  0.240473
    C   C108  0.956735  0.218342  0.480351  0.240292
    C   C109  0.781658  0.043265  0.519649  0.240227
    C   C110  0.043265  0.218342  0.519649  0.240226
    C   C111  0.218342  0.956735  0.519649  0.240466
    C   C112  0.956735  0.781658  0.519649  0.240452
    C   C113  0.281658  0.456735  0.980351  0.240289
    C   C114  0.543265  0.281658  0.980351  0.240445
    C   C115  0.718342  0.543265  0.980351  0.240478
    C   C116  0.456735  0.718342  0.980351  0.240310
    C   C117  0.281658  0.543265  0.019649  0.240207
    C   C118  0.543265  0.718342  0.019649  0.240226
    C   C119  0.718342  0.456735  0.019649  0.240476
    C   C120  0.456735  0.281658  0.019649  0.240443
    C   C121  0.814165  0.000000  0.500000  -0.273393
    C   C122  0.000000  0.814165  0.500000  -0.273515
    C   C123  0.185835  0.000000  0.500000  -0.273508
    C   C124  0.000000  0.185835  0.500000  -0.273371
    C   C125  0.314165  0.500000  0.000000  -0.273365
    C   C126  0.500000  0.314165  0.000000  -0.273481
    C   C127  0.685835  0.500000  0.000000  -0.273499
    C   C128  0.500000  0.685835  0.000000  -0.273356
    C   C129  0.685470  0.000000  0.500000  0.015893
    C   C130  0.000000  0.685470  0.500000  0.016223
    C   C131  0.314530  0.000000  0.500000  0.016223
    C   C132  0.000000  0.314530  0.500000  0.015897
    C   C133  0.185470  0.500000  0.000000  0.015895
    C   C134  0.500000  0.185470  0.000000  0.016202
    C   C135  0.814530  0.500000  0.000000  0.016189
    C   C136  0.500000  0.814530  0.000000  0.015840
    O   O33   0.016541  0.088823  0.471368  -0.396727
    O   O34   0.911177  0.016541  0.471368  -0.396729
    O   O35   0.983459  0.911177  0.471368  -0.396721
    O   O36   0.088823  0.983459  0.471368  -0.396715
    O   O37   0.016541  0.911177  0.528632  -0.396764
    O   O38   0.911177  0.983459  0.528632  -0.396763
    O   O39   0.983459  0.088823  0.528632  -0.396755
    O   O40   0.088823  0.016541  0.528632  -0.396751
    O   O41   0.516541  0.588823  0.971368  -0.396750
    O   O42   0.411177  0.516541  0.971368  -0.396780
    O   O43   0.483459  0.411177  0.971368  -0.396768
    O   O44   0.588823  0.483459  0.971368  -0.396743
    O   O45   0.516541  0.411177  0.028632  -0.396715
    O   O46   0.411177  0.483459  0.028632  -0.396718
    O   O47   0.483459  0.588823  0.028632  -0.396683
    O   O48   0.588823  0.516541  0.028632  -0.396679
    C   C137  0.000000  0.117882  0.500000  0.595642
    C   C138  0.882118  0.000000  0.500000  0.595676
    C   C139  0.000000  0.882118  0.500000  0.595677
    C   C140  0.117882  0.000000  0.500000  0.595628
    C   C141  0.500000  0.617882  0.000000  0.595599
    C   C142  0.382117  0.500000  0.000000  0.595651
    C   C143  0.500000  0.382117  0.000000  0.595640
    C   C144  0.617882  0.500000  0.000000  0.595593
    Cu  Cu9   0.000000  0.000000  0.466131  0.688632
    Cu  Cu10  0.000000  0.000000  0.533869  0.688429
    Cu  Cu11  0.500000  0.500000  0.966131  0.688558
    Cu  Cu12  0.500000  0.500000  0.033869  0.688598
    C   C145  0.813915  0.908598  0.458994  -0.203903
    C   C146  0.820560  0.931525  0.421973  0.017439
    C   C147  0.864615  0.889691  0.402105  0.299738
    C   C148  0.873087  0.914144  0.365589  -0.286487
    H   H65   0.785861  0.865458  0.458947  0.067129
    H   H66   0.859774  0.896421  0.469903  0.024079
    H   H67   0.838830  0.979553  0.421937  -0.024909
    H   H68   0.774384  0.931318  0.409278  0.008983
    H   H69   0.845358  0.841997  0.401066  -0.060768
    H   H70   0.910426  0.888703  0.415140  -0.060910
    H   H71   0.827620  0.915496  0.352138  0.050405
    H   H72   0.905101  0.883118  0.351219  0.042994
    H   H73   0.893153  0.961533  0.366514  0.066123
    C   C149  0.091402  0.813915  0.458994  -0.203984
    C   C150  0.068475  0.820560  0.421973  0.017451
    C   C151  0.110309  0.864615  0.402105  0.299749
    C   C152  0.085856  0.873087  0.365589  -0.286500
    H   H74   0.134542  0.785861  0.458947  0.067147
    H   H75   0.103579  0.859774  0.469903  0.024095
    H   H76   0.020447  0.838830  0.421937  -0.024913
    H   H77   0.068682  0.774384  0.409278  0.008982
    H   H78   0.158003  0.845358  0.401066  -0.060768
    H   H79   0.111297  0.910426  0.415140  -0.060910
    H   H80   0.084504  0.827620  0.352138  0.050407
    H   H81   0.116882  0.905101  0.351219  0.042995
    H   H82   0.038467  0.893153  0.366514  0.066129
    C   C153  0.186085  0.091402  0.458994  -0.203991
    C   C154  0.179440  0.068475  0.421973  0.017468
    C   C155  0.135385  0.110309  0.402105  0.299735
    C   C156  0.126913  0.085856  0.365589  -0.286475
    H   H83   0.214139  0.134542  0.458947  0.067143
    H   H84   0.140226  0.103579  0.469903  0.024099
    H   H85   0.161170  0.020447  0.421937  -0.024919
    H   H86   0.225616  0.068682  0.409278  0.008980
    H   H87   0.154642  0.158003  0.401066  -0.060769
    H   H88   0.089574  0.111297  0.415140  -0.060912
    H   H89   0.172380  0.084504  0.352138  0.050400
    H   H90   0.094899  0.116882  0.351218  0.042991
    H   H91   0.106847  0.038467  0.366514  0.066123
    C   C157  0.908598  0.186085  0.458994  -0.203900
    C   C158  0.931525  0.179440  0.421973  0.017446
    C   C159  0.889691  0.135385  0.402105  0.299737
    C   C160  0.914144  0.126913  0.365589  -0.286466
    H   H92   0.865458  0.214139  0.458947  0.067125
    H   H93   0.896421  0.140226  0.469903  0.024080
    H   H94   0.979553  0.161170  0.421937  -0.024911
    H   H95   0.931318  0.225616  0.409278  0.008979
    H   H96   0.841997  0.154642  0.401066  -0.060772
    H   H97   0.888703  0.089574  0.415140  -0.060914
    H   H98   0.915496  0.172380  0.352138  0.050399
    H   H99   0.883118  0.094899  0.351218  0.042990
    H   H100  0.961533  0.106847  0.366514  0.066118
    C   C161  0.813915  0.091402  0.541006  -0.203935
    C   C162  0.820560  0.068475  0.578027  0.017415
    C   C163  0.864615  0.110309  0.597895  0.299809
    C   C164  0.873087  0.085856  0.634411  -0.286505
    H   H101  0.785861  0.134542  0.541053  0.067140
    H   H102  0.859774  0.103579  0.530097  0.024086
    H   H103  0.838830  0.020447  0.578063  -0.024907
    H   H104  0.774384  0.068682  0.590722  0.008976
    H   H105  0.845358  0.158003  0.598934  -0.060782
    H   H106  0.910426  0.111297  0.584860  -0.060927
    H   H107  0.827620  0.084504  0.647862  0.050409
    H   H108  0.905101  0.116882  0.648781  0.042990
    H   H109  0.893153  0.038467  0.633486  0.066127
    C   C165  0.091402  0.186085  0.541006  -0.203923
    C   C166  0.068475  0.179440  0.578027  0.017405
    C   C167  0.110309  0.135385  0.597895  0.299800
    C   C168  0.085856  0.126913  0.634411  -0.286491
    H   H110  0.134542  0.214139  0.541053  0.067138
    H   H111  0.103579  0.140226  0.530097  0.024081
    H   H112  0.020447  0.161170  0.578063  -0.024902
    H   H113  0.068682  0.225616  0.590722  0.008976
    H   H114  0.158003  0.154642  0.598934  -0.060781
    H   H115  0.111297  0.089574  0.584860  -0.060925
    H   H116  0.084504  0.172380  0.647862  0.050406
    H   H117  0.116882  0.094899  0.648782  0.042986
    H   H118  0.038467  0.106847  0.633486  0.066126
    C   C169  0.186085  0.908598  0.541006  -0.203954
    C   C170  0.179440  0.931525  0.578027  0.017457
    C   C171  0.135385  0.889691  0.597895  0.299723
    C   C172  0.126913  0.914144  0.634411  -0.286468
    H   H119  0.214139  0.865458  0.541053  0.067139
    H   H120  0.140226  0.896421  0.530097  0.024079
    H   H121  0.161170  0.979553  0.578063  -0.024916
    H   H122  0.225616  0.931318  0.590722  0.008979
    H   H123  0.154642  0.841997  0.598934  -0.060767
    H   H124  0.089574  0.888703  0.584860  -0.060900
    H   H125  0.172380  0.915496  0.647862  0.050399
    H   H126  0.094899  0.883118  0.648782  0.042989
    H   H127  0.106847  0.961533  0.633486  0.066119
    C   C173  0.908598  0.813915  0.541006  -0.203955
    C   C174  0.931525  0.820560  0.578027  0.017454
    C   C175  0.889691  0.864615  0.597895  0.299743
    C   C176  0.914144  0.873087  0.634411  -0.286487
    H   H128  0.865458  0.785861  0.541053  0.067140
    H   H129  0.896421  0.859774  0.530097  0.024082
    H   H130  0.979553  0.838830  0.578063  -0.024916
    H   H131  0.931318  0.774384  0.590722  0.008980
    H   H132  0.841997  0.845358  0.598934  -0.060772
    H   H133  0.888703  0.910426  0.584860  -0.060903
    H   H134  0.915496  0.827620  0.647862  0.050405
    H   H135  0.883118  0.905101  0.648781  0.042993
    H   H136  0.961533  0.893153  0.633486  0.066120
    C   C177  0.313915  0.408598  0.958994  -0.203920
    C   C178  0.320560  0.431525  0.921973  0.017446
    C   C179  0.364615  0.389691  0.902105  0.299755
    C   C180  0.373087  0.414144  0.865589  -0.286489
    H   H137  0.285861  0.365458  0.958947  0.067138
    H   H138  0.359774  0.396421  0.969903  0.024079
    H   H139  0.338830  0.479553  0.921937  -0.024911
    H   H140  0.274384  0.431318  0.909278  0.008983
    H   H141  0.345358  0.341997  0.901066  -0.060770
    H   H142  0.410426  0.388703  0.915140  -0.060916
    H   H143  0.327620  0.415496  0.852138  0.050409
    H   H144  0.405101  0.383117  0.851219  0.042993
    H   H145  0.393153  0.461533  0.866514  0.066118
    C   C181  0.591402  0.313915  0.958994  -0.203985
    C   C182  0.568475  0.320560  0.921973  0.017463
    C   C183  0.610309  0.364615  0.902105  0.299738
    C   C184  0.585856  0.373087  0.865589  -0.286481
    H   H146  0.634542  0.285861  0.958947  0.067152
    H   H147  0.603579  0.359774  0.969903  0.024094
    H   H148  0.520447  0.338830  0.921937  -0.024917
    H   H149  0.568682  0.274384  0.909278  0.008980
    H   H150  0.658003  0.345358  0.901066  -0.060764
    H   H151  0.611297  0.410426  0.915140  -0.060912
    H   H152  0.584504  0.327620  0.852138  0.050406
    H   H153  0.616882  0.405101  0.851218  0.042993
    H   H154  0.538467  0.393153  0.866514  0.066119
    C   C185  0.686085  0.591402  0.958994  -0.204019
    C   C186  0.679440  0.568475  0.921973  0.017493
    C   C187  0.635384  0.610309  0.902105  0.299725
    C   C188  0.626913  0.585856  0.865589  -0.286462
    H   H155  0.714139  0.634542  0.958947  0.067152
    H   H156  0.640226  0.603579  0.969903  0.024104
    H   H157  0.661170  0.520447  0.921937  -0.024929
    H   H158  0.725616  0.568682  0.909278  0.008981
    H   H159  0.654642  0.658003  0.901066  -0.060767
    H   H160  0.589574  0.611297  0.915140  -0.060912
    H   H161  0.672380  0.584504  0.852138  0.050403
    H   H162  0.594899  0.616882  0.851218  0.042988
    H   H163  0.606847  0.538467  0.866514  0.066112
    C   C189  0.408598  0.686085  0.958994  -0.203948
    C   C190  0.431525  0.679440  0.921973  0.017446
    C   C191  0.389691  0.635385  0.902105  0.299767
    C   C192  0.414144  0.626913  0.865589  -0.286482
    H   H164  0.365458  0.714139  0.958947  0.067139
    H   H165  0.396421  0.640226  0.969903  0.024092
    H   H166  0.479553  0.661170  0.921937  -0.024914
    H   H167  0.431318  0.725616  0.909278  0.008984
    H   H168  0.341997  0.654642  0.901066  -0.060775
    H   H169  0.388703  0.589574  0.915140  -0.060920
    H   H170  0.415496  0.672380  0.852138  0.050405
    H   H171  0.383117  0.594899  0.851219  0.042993
    H   H172  0.461533  0.606847  0.866514  0.066116
    C   C193  0.313915  0.591402  0.041006  -0.203935
    C   C194  0.320560  0.568475  0.078027  0.017440
    C   C195  0.364615  0.610309  0.097895  0.299790
    C   C196  0.373087  0.585856  0.134411  -0.286490
    H   H173  0.285861  0.634542  0.041053  0.067143
    H   H174  0.359774  0.603579  0.030097  0.024085
    H   H175  0.338830  0.520447  0.078063  -0.024912
    H   H176  0.274384  0.568682  0.090722  0.008970
    H   H177  0.345358  0.658003  0.098934  -0.060779
    H   H178  0.410426  0.611297  0.084860  -0.060924
    H   H179  0.327620  0.584504  0.147862  0.050408
    H   H180  0.405101  0.616882  0.148782  0.042987
    H   H181  0.393153  0.538467  0.133486  0.066122
    C   C197  0.591402  0.686085  0.041006  -0.203954
    C   C198  0.568475  0.679440  0.078027  0.017422
    C   C199  0.610309  0.635385  0.097895  0.299800
    C   C200  0.585856  0.626913  0.134411  -0.286492
    H   H182  0.634542  0.714139  0.041053  0.067147
    H   H183  0.603579  0.640226  0.030097  0.024091
    H   H184  0.520447  0.661170  0.078063  -0.024909
    H   H185  0.568682  0.725616  0.090722  0.008976
    H   H186  0.658003  0.654642  0.098934  -0.060781
    H   H187  0.611297  0.589574  0.084860  -0.060924
    H   H188  0.584504  0.672380  0.147862  0.050407
    H   H189  0.616882  0.594899  0.148782  0.042989
    H   H190  0.538467  0.606847  0.133486  0.066125
    C   C201  0.686085  0.408598  0.041006  -0.203998
    C   C202  0.679440  0.431525  0.078027  0.017478
    C   C203  0.635384  0.389691  0.097895  0.299738
    C   C204  0.626913  0.414144  0.134411  -0.286482
    H   H191  0.714139  0.365458  0.041053  0.067149
    H   H192  0.640226  0.396421  0.030097  0.024090
    H   H193  0.661170  0.479553  0.078063  -0.024924
    H   H194  0.725616  0.431318  0.090722  0.008980
    H   H195  0.654642  0.341997  0.098934  -0.060772
    H   H196  0.589574  0.388703  0.084860  -0.060900
    H   H197  0.672380  0.415496  0.147862  0.050407
    H   H198  0.594899  0.383117  0.148781  0.042990
    H   H199  0.606847  0.461533  0.133486  0.066120
    C   C205  0.408598  0.313915  0.041006  -0.203976
    C   C206  0.431525  0.320560  0.078027  0.017470
    C   C207  0.389691  0.364615  0.097895  0.299752
    C   C208  0.414144  0.373087  0.134411  -0.286493
    H   H200  0.365458  0.285861  0.041053  0.067147
    H   H201  0.396421  0.359774  0.030097  0.024088
    H   H202  0.479553  0.338830  0.078063  -0.024919
    H   H203  0.431318  0.274384  0.090722  0.008975
    H   H204  0.341997  0.345358  0.098934  -0.060773
    H   H205  0.388703  0.410426  0.084860  -0.060904
    H   H206  0.415496  0.327620  0.147862  0.050407
    H   H207  0.383117  0.405101  0.148781  0.042994
    H   H208  0.461533  0.393153  0.133486  0.066122
