# Generated by REPEAT Assigner based on pymatgen
data_DB0-m2_o1_o3_f0_nbo.sym.56
_audit_creation_date              2022-05-24
_audit_creation_method            REPEAT_Assigner
_cell_length_a                    21.489380
_cell_length_b                    21.489380
_cell_length_c                    38.517351
_cell_angle_alpha                 90.000000
_cell_angle_beta                  90.000000
_cell_angle_gamma                 90.000000
_cell_volume                      17787.060033
_symmetry_space_group_name_H-M    P1
_symmetry_Int_Tables_number       1
loop_
    _symmetry_equiv_pos_site_id
    _symmetry_equiv_pos_as_xyz
    1  x,y,z
loop_
    _atom_site_type_symbol
    _atom_site_label
    _atom_site_fract_x
    _atom_site_fract_y
    _atom_site_fract_z
    _atom_type_partial_charge
    O   O1    0.588953  0.051721  0.491136  -0.607133
    O   O2    0.948279  0.588953  0.491136  -0.607097
    O   O3    0.411047  0.948279  0.491136  -0.607099
    O   O4    0.051721  0.411047  0.491136  -0.607094
    O   O5    0.588953  0.948279  0.508864  -0.607096
    O   O6    0.948279  0.411047  0.508864  -0.607089
    O   O7    0.411047  0.051721  0.508864  -0.607112
    O   O8    0.051721  0.588953  0.508864  -0.607085
    O   O9    0.088953  0.551720  0.991136  -0.607049
    O   O10   0.448279  0.088952  0.991136  -0.607095
    O   O11   0.911048  0.448279  0.991136  -0.607164
    O   O12   0.551721  0.911047  0.991136  -0.607123
    O   O13   0.088953  0.448278  0.008864  -0.607142
    O   O14   0.448279  0.911047  0.008864  -0.607102
    O   O15   0.911048  0.551720  0.008864  -0.607054
    O   O16   0.551721  0.088952  0.008864  -0.607102
    C   C1    0.617952  0.000000  0.500000  0.746396
    C   C2    0.000000  0.617952  0.500000  0.746321
    C   C3    0.382048  0.000000  0.500000  0.746603
    C   C4    0.000000  0.382048  0.500000  0.746551
    C   C5    0.117952  0.499999  0.000000  0.746389
    C   C6    0.500000  0.117951  0.000000  0.746382
    C   C7    0.882048  0.499999  0.000000  0.746438
    C   C8    0.500000  0.882048  0.000000  0.746591
    O   O17   0.515989  0.051660  0.549721  -0.495206
    O   O18   0.948340  0.515989  0.549721  -0.495148
    O   O19   0.484011  0.948340  0.549721  -0.495142
    O   O20   0.051660  0.484011  0.549721  -0.495177
    O   O21   0.515989  0.948340  0.450279  -0.495136
    O   O22   0.948340  0.484011  0.450279  -0.495161
    O   O23   0.484011  0.051660  0.450279  -0.495209
    O   O24   0.051660  0.515989  0.450279  -0.495167
    O   O25   0.015989  0.551659  0.049721  -0.495181
    O   O26   0.448340  0.015989  0.049721  -0.495167
    O   O27   0.984011  0.448339  0.049721  -0.495149
    O   O28   0.551660  0.984010  0.049721  -0.495207
    O   O29   0.015989  0.448340  0.950279  -0.495171
    O   O30   0.448340  0.984010  0.950279  -0.495159
    O   O31   0.984011  0.551659  0.950279  -0.495223
    O   O32   0.551660  0.015989  0.950279  -0.495195
    C   C9    0.500000  0.000000  0.565969  0.538098
    C   C10   0.000000  0.500000  0.565969  0.538048
    C   C11   0.500000  0.000000  0.434031  0.538108
    C   C12   0.000000  0.500000  0.434031  0.538008
    C   C13   0.000000  0.499999  0.065969  0.537949
    C   C14   0.500000  0.999999  0.065969  0.537834
    C   C15   0.000000  0.500000  0.934031  0.538048
    C   C16   0.500000  0.999999  0.934031  0.537908
    Cu  Cu1   0.500000  0.061053  0.500000  0.912674
    Cu  Cu2   0.938947  0.500000  0.500000  0.912646
    Cu  Cu3   0.500000  0.938947  0.500000  0.912608
    Cu  Cu4   0.061053  0.500000  0.500000  0.912651
    Cu  Cu5   0.000000  0.561052  0.000000  0.912659
    Cu  Cu6   0.438947  0.999999  0.000000  0.912674
    Cu  Cu7   0.000000  0.438946  0.000000  0.912731
    Cu  Cu8   0.561053  0.999999  0.000000  0.912726
    C   C17   0.555320  0.996156  0.878068  0.041776
    C   C18   0.003844  0.555320  0.878068  0.042052
    C   C19   0.444680  0.003844  0.878068  0.042085
    C   C20   0.996156  0.444679  0.878068  0.042371
    C   C21   0.555320  0.003843  0.121932  0.041670
    C   C22   0.003844  0.444679  0.121932  0.042172
    C   C23   0.444680  0.996155  0.121932  0.041587
    C   C24   0.996156  0.555320  0.121932  0.041748
    C   C25   0.055320  0.496156  0.378068  0.041840
    C   C26   0.503844  0.055320  0.378068  0.042044
    C   C27   0.944680  0.503843  0.378068  0.042189
    C   C28   0.496156  0.944680  0.378068  0.042373
    C   C29   0.055320  0.503844  0.621932  0.041999
    C   C30   0.503844  0.944680  0.621932  0.042312
    C   C31   0.944680  0.496156  0.621932  0.042346
    C   C32   0.496156  0.055320  0.621932  0.042033
    H   H1    0.598989  0.992402  0.891763  0.097500
    H   H2    0.007598  0.598989  0.891762  0.097446
    H   H3    0.401011  0.007597  0.891762  0.097330
    H   H4    0.992402  0.401010  0.891763  0.097278
    H   H5    0.598989  0.007597  0.108237  0.097513
    H   H6    0.007598  0.401010  0.108237  0.097317
    H   H7    0.401011  0.992402  0.108237  0.097533
    H   H8    0.992402  0.598989  0.108237  0.097504
    H   H9    0.098989  0.492402  0.391763  0.097487
    H   H10   0.507597  0.098989  0.391763  0.097440
    H   H11   0.901010  0.507597  0.391762  0.097300
    H   H12   0.492402  0.901011  0.391763  0.097268
    H   H13   0.098989  0.507597  0.608237  0.097457
    H   H14   0.507597  0.901010  0.608238  0.097275
    H   H15   0.901010  0.492402  0.608238  0.097282
    H   H16   0.492403  0.098989  0.608237  0.097455
    C   C33   0.555331  0.995748  0.842296  -0.274905
    C   C34   0.004252  0.555331  0.842296  -0.275048
    C   C35   0.444669  0.004251  0.842296  -0.274997
    C   C36   0.995748  0.444669  0.842296  -0.275190
    C   C37   0.555331  0.004251  0.157704  -0.274811
    C   C38   0.004252  0.444669  0.157704  -0.275077
    C   C39   0.444669  0.995748  0.157704  -0.274779
    C   C40   0.995748  0.555330  0.157704  -0.274885
    C   C41   0.055331  0.495748  0.342296  -0.274916
    C   C42   0.504251  0.055331  0.342296  -0.274998
    C   C43   0.944669  0.504251  0.342296  -0.275049
    C   C44   0.495748  0.944669  0.342296  -0.275155
    C   C45   0.055331  0.504251  0.657704  -0.274969
    C   C46   0.504252  0.944669  0.657704  -0.275110
    C   C47   0.944669  0.495748  0.657704  -0.275143
    C   C48   0.495749  0.055331  0.657704  -0.275003
    H   H17   0.599281  0.993362  0.828742  0.133368
    H   H18   0.006637  0.599280  0.828742  0.133388
    H   H19   0.400720  0.006637  0.828742  0.133394
    H   H20   0.993363  0.400718  0.828742  0.133417
    H   H21   0.599281  0.006637  0.171258  0.133355
    H   H22   0.006637  0.400719  0.171258  0.133406
    H   H23   0.400719  0.993362  0.171258  0.133349
    H   H24   0.993363  0.599281  0.171257  0.133364
    H   H25   0.099281  0.493363  0.328742  0.133363
    H   H26   0.506637  0.099281  0.328742  0.133372
    H   H27   0.900719  0.506636  0.328742  0.133403
    H   H28   0.493363  0.900719  0.328742  0.133417
    H   H29   0.099281  0.506637  0.671257  0.133370
    H   H30   0.506637  0.900719  0.671258  0.133411
    H   H31   0.900719  0.493363  0.671258  0.133414
    H   H32   0.493363  0.099281  0.671258  0.133374
    C   C49   0.500000  0.000000  0.824154  0.201547
    C   C50   0.000000  0.500000  0.824154  0.201651
    C   C51   0.500000  0.000000  0.175845  0.201501
    C   C52   0.000000  0.499999  0.175845  0.201607
    C   C53   0.000000  0.500000  0.324154  0.201562
    C   C54   0.500000  0.000000  0.324154  0.201590
    C   C55   0.000000  0.500000  0.675845  0.201595
    C   C56   0.500000  0.000000  0.675845  0.201595
    C   C57   0.500000  0.000000  0.896086  -0.113371
    C   C58   0.000000  0.500000  0.896086  -0.113713
    C   C59   0.500000  0.999999  0.103914  -0.113074
    C   C60   0.000000  0.499999  0.103914  -0.113434
    C   C61   0.000000  0.500000  0.396086  -0.113525
    C   C62   0.500000  0.000000  0.396086  -0.113777
    C   C63   0.000000  0.500000  0.603914  -0.113727
    C   C64   0.500000  0.000000  0.603914  -0.113743
    C   C65   0.460681  0.039127  0.767889  -0.122151
    C   C66   0.960873  0.460680  0.767889  -0.122144
    C   C67   0.539320  0.960873  0.767889  -0.122137
    C   C68   0.039127  0.539319  0.767889  -0.122152
    C   C69   0.460681  0.960873  0.232111  -0.122101
    C   C70   0.960873  0.539319  0.232111  -0.122134
    C   C71   0.539319  0.039127  0.232111  -0.122096
    C   C72   0.039127  0.460680  0.232111  -0.122163
    C   C73   0.960680  0.539126  0.267889  -0.122163
    C   C74   0.460873  0.960680  0.267889  -0.122196
    C   C75   0.039320  0.460873  0.267889  -0.122135
    C   C76   0.539127  0.039319  0.267889  -0.122185
    C   C77   0.960680  0.460873  0.732111  -0.122166
    C   C78   0.460873  0.039319  0.732111  -0.122147
    C   C79   0.039320  0.539126  0.732111  -0.122160
    C   C80   0.539127  0.960680  0.732111  -0.122185
    H   H33   0.430183  0.070862  0.781446  0.093751
    H   H34   0.929139  0.430183  0.781447  0.093752
    H   H35   0.569817  0.929138  0.781446  0.093761
    H   H36   0.070862  0.569817  0.781446  0.093754
    H   H37   0.430183  0.929138  0.218553  0.093745
    H   H38   0.929139  0.569816  0.218553  0.093753
    H   H39   0.569817  0.070861  0.218553  0.093737
    H   H40   0.070862  0.430182  0.218554  0.093756
    H   H41   0.930182  0.570861  0.281446  0.093757
    H   H42   0.429139  0.930182  0.281446  0.093769
    H   H43   0.069817  0.429139  0.281447  0.093758
    H   H44   0.570861  0.069817  0.281446  0.093762
    H   H45   0.930182  0.429138  0.718554  0.093763
    H   H46   0.429139  0.069817  0.718553  0.093755
    H   H47   0.069817  0.570861  0.718553  0.093756
    H   H48   0.570862  0.930182  0.718554  0.093765
    C   C81   0.500000  0.000000  0.713965  0.035284
    C   C82   0.000000  0.500000  0.713965  0.035285
    C   C83   0.500000  0.000000  0.286035  0.035321
    C   C84   0.000000  0.499999  0.286035  0.035273
    C   C85   0.000000  0.500000  0.213965  0.035248
    C   C86   0.500000  0.000000  0.213965  0.035199
    C   C87   0.000000  0.500000  0.786035  0.035280
    C   C88   0.500000  0.000000  0.786035  0.035272
    C   C89   0.717333  0.962462  0.476937  0.373295
    C   C90   0.037537  0.717333  0.476937  0.373238
    C   C91   0.282667  0.037537  0.476937  0.373847
    C   C92   0.962462  0.282667  0.476937  0.373897
    C   C93   0.717333  0.037537  0.523062  0.373238
    C   C94   0.037537  0.282667  0.523063  0.373834
    C   C95   0.282667  0.962462  0.523063  0.373901
    C   C96   0.962462  0.717333  0.523063  0.373271
    C   C97   0.217333  0.462462  0.976937  0.373331
    C   C98   0.537538  0.217333  0.976937  0.373240
    C   C99   0.782667  0.537537  0.976937  0.373646
    C   C100  0.462463  0.782666  0.976937  0.373889
    C   C101  0.217333  0.537537  0.023063  0.373738
    C   C102  0.537538  0.782666  0.023063  0.373827
    C   C103  0.782667  0.462462  0.023063  0.373330
    C   C104  0.462463  0.217333  0.023063  0.373267
    C   C105  0.781845  0.963039  0.476753  -0.254948
    C   C106  0.036960  0.781845  0.476753  -0.254907
    C   C107  0.218155  0.036960  0.476753  -0.255209
    C   C108  0.963040  0.218155  0.476753  -0.255229
    C   C109  0.781845  0.036960  0.523247  -0.254902
    C   C110  0.036960  0.218155  0.523247  -0.255199
    C   C111  0.218155  0.963039  0.523247  -0.255241
    C   C112  0.963040  0.781845  0.523247  -0.254932
    C   C113  0.281845  0.463039  0.976753  -0.254929
    C   C114  0.536960  0.281845  0.976753  -0.254928
    C   C115  0.718155  0.536960  0.976753  -0.255174
    C   C116  0.463040  0.718154  0.976753  -0.255222
    C   C117  0.281845  0.536960  0.023247  -0.255220
    C   C118  0.536960  0.718154  0.023247  -0.255201
    C   C119  0.718155  0.463039  0.023247  -0.254914
    C   C120  0.463040  0.281845  0.023247  -0.254941
    H   H49   0.808071  0.934250  0.459082  0.130727
    H   H50   0.065749  0.808071  0.459082  0.130706
    H   H51   0.191928  0.065749  0.459082  0.130739
    H   H52   0.934250  0.191928  0.459082  0.130738
    H   H53   0.808071  0.065749  0.540917  0.130714
    H   H54   0.065749  0.191928  0.540917  0.130739
    H   H55   0.191928  0.934250  0.540917  0.130751
    H   H56   0.934250  0.808071  0.540917  0.130715
    H   H57   0.308072  0.434250  0.959082  0.130683
    H   H58   0.565750  0.308071  0.959082  0.130714
    H   H59   0.691929  0.565749  0.959082  0.130753
    H   H60   0.434251  0.691928  0.959082  0.130743
    H   H61   0.308072  0.565749  0.040918  0.130772
    H   H62   0.565749  0.691928  0.040918  0.130736
    H   H63   0.691929  0.434250  0.040918  0.130677
    H   H64   0.434251  0.308071  0.040918  0.130721
    C   C121  0.813927  0.000000  0.500000  -0.122762
    C   C122  0.000000  0.813927  0.500000  -0.122758
    C   C123  0.186073  0.000000  0.500000  -0.122417
    C   C124  0.000000  0.186073  0.500000  -0.122420
    C   C125  0.313927  0.499999  0.000000  -0.122605
    C   C126  0.500000  0.313926  0.000000  -0.122722
    C   C127  0.686073  0.499999  0.000000  -0.122608
    C   C128  0.500000  0.686073  0.000000  -0.122447
    C   C129  0.685751  0.000000  0.500000  -0.376702
    C   C130  0.000000  0.685751  0.500000  -0.376674
    C   C131  0.314249  0.000000  0.500000  -0.377706
    C   C132  0.000000  0.314249  0.500000  -0.377687
    C   C133  0.185751  0.499999  0.000000  -0.377111
    C   C134  0.500000  0.185750  0.000000  -0.376717
    C   C135  0.814249  0.499999  0.000000  -0.377121
    C   C136  0.500000  0.814248  0.000000  -0.377687
    O   O33   0.981537  0.088682  0.471603  -0.614007
    O   O34   0.911317  0.981537  0.471603  -0.614022
    O   O35   0.018463  0.911317  0.471603  -0.614027
    O   O36   0.088682  0.018463  0.471603  -0.614004
    O   O37   0.981537  0.911317  0.528397  -0.614020
    O   O38   0.911317  0.018463  0.528397  -0.614014
    O   O39   0.018463  0.088682  0.528397  -0.614007
    O   O40   0.088682  0.981537  0.528397  -0.613994
    O   O41   0.481537  0.588682  0.971603  -0.614018
    O   O42   0.411318  0.481537  0.971603  -0.614040
    O   O43   0.518463  0.411317  0.971603  -0.614047
    O   O44   0.588683  0.518462  0.971603  -0.614023
    O   O45   0.481538  0.411317  0.028397  -0.614050
    O   O46   0.411318  0.518462  0.028397  -0.614041
    O   O47   0.518463  0.588682  0.028397  -0.614022
    O   O48   0.588683  0.481537  0.028397  -0.614029
    C   C137  0.000000  0.117919  0.500000  0.807191
    C   C138  0.882081  0.000000  0.500000  0.807354
    C   C139  0.000000  0.882081  0.500000  0.807357
    C   C140  0.117919  0.000000  0.500000  0.807184
    C   C141  0.500000  0.617919  0.000000  0.807225
    C   C142  0.382081  0.499999  0.000000  0.807304
    C   C143  0.500000  0.382080  0.000000  0.807333
    C   C144  0.617919  0.499999  0.000000  0.807286
    Cu  Cu9   0.000000  0.000000  0.466263  0.929085
    Cu  Cu10  0.000000  0.000000  0.533737  0.929101
    Cu  Cu11  0.500000  0.499999  0.966263  0.929146
    Cu  Cu12  0.500000  0.499999  0.033737  0.929109
    O   O49   0.683910  0.926989  0.454780  -0.183202
    C   C145  0.709708  0.887804  0.430599  0.018530
    C   C146  0.659217  0.855402  0.411315  0.114478
    C   C147  0.654873  0.860638  0.375657  -0.200322
    C   C148  0.609109  0.828808  0.357953  -0.035561
    C   C149  0.567436  0.792033  0.375812  -0.117736
    C   C150  0.571334  0.787292  0.411433  -0.110689
    C   C151  0.617233  0.818875  0.429166  -0.137098
    H   H65   0.738646  0.852235  0.443829  0.041310
    H   H66   0.738623  0.914948  0.412186  0.049615
    H   H67   0.687390  0.889159  0.361341  0.113751
    H   H68   0.605811  0.832815  0.330041  0.081867
    H   H69   0.531439  0.767285  0.361907  0.092745
    H   H70   0.538505  0.758660  0.425458  0.103549
    H   H71   0.620459  0.814611  0.457073  0.120175
    O   O50   0.073010  0.683910  0.454780  -0.183120
    C   C152  0.112195  0.709708  0.430599  0.018470
    C   C153  0.144597  0.659217  0.411315  0.114259
    C   C154  0.139362  0.654873  0.375657  -0.199933
    C   C155  0.171191  0.609109  0.357953  -0.036051
    C   C156  0.207966  0.567436  0.375812  -0.117455
    C   C157  0.212707  0.571334  0.411433  -0.110777
    C   C158  0.181125  0.617233  0.429166  -0.136928
    H   H72   0.147765  0.738646  0.443829  0.041337
    H   H73   0.085052  0.738623  0.412186  0.049623
    H   H74   0.110841  0.687390  0.361341  0.113683
    H   H75   0.167184  0.605811  0.330041  0.081988
    H   H76   0.232714  0.531439  0.361907  0.092691
    H   H77   0.241339  0.538505  0.425457  0.103531
    H   H78   0.185388  0.620459  0.457073  0.120124
    O   O51   0.316090  0.073010  0.454780  -0.183137
    C   C159  0.290292  0.112195  0.430599  0.018326
    C   C160  0.340782  0.144597  0.411315  0.114437
    C   C161  0.345126  0.139362  0.375657  -0.200292
    C   C162  0.390891  0.171192  0.357953  -0.035632
    C   C163  0.432563  0.207966  0.375812  -0.117570
    C   C164  0.428666  0.212707  0.411433  -0.110752
    C   C165  0.382767  0.181125  0.429166  -0.136980
    H   H79   0.261354  0.147765  0.443829  0.041352
    H   H80   0.261376  0.085052  0.412186  0.049655
    H   H81   0.312609  0.110841  0.361341  0.113760
    H   H82   0.394189  0.167184  0.330041  0.081872
    H   H83   0.468561  0.232714  0.361907  0.092674
    H   H84   0.461495  0.241339  0.425458  0.103538
    H   H85   0.379541  0.185388  0.457073  0.120125
    O   O52   0.926989  0.316090  0.454780  -0.183188
    C   C166  0.887804  0.290292  0.430599  0.018390
    C   C167  0.855402  0.340782  0.411315  0.114451
    C   C168  0.860638  0.345126  0.375657  -0.200443
    C   C169  0.828808  0.390891  0.357953  -0.035410
    C   C170  0.792033  0.432563  0.375812  -0.117823
    C   C171  0.787293  0.428666  0.411433  -0.110720
    C   C172  0.818875  0.382767  0.429166  -0.136943
    H   H86   0.852235  0.261354  0.443829  0.041333
    H   H87   0.914948  0.261376  0.412186  0.049648
    H   H88   0.889159  0.312609  0.361341  0.113795
    H   H89   0.832815  0.394189  0.330041  0.081828
    H   H90   0.767285  0.468561  0.361907  0.092768
    H   H91   0.758660  0.461495  0.425458  0.103563
    H   H92   0.814612  0.379541  0.457073  0.120108
    O   O53   0.683910  0.073010  0.545219  -0.183133
    C   C173  0.709708  0.112195  0.569401  0.018431
    C   C174  0.659217  0.144597  0.588685  0.114476
    C   C175  0.654873  0.139362  0.624343  -0.200212
    C   C176  0.609109  0.171192  0.642047  -0.035733
    C   C177  0.567436  0.207967  0.624187  -0.117535
    C   C178  0.571334  0.212707  0.588566  -0.110704
    C   C179  0.617233  0.181125  0.570833  -0.137152
    H   H93   0.738646  0.147765  0.556171  0.041333
    H   H94   0.738623  0.085052  0.587814  0.049636
    H   H95   0.687390  0.110841  0.638659  0.113728
    H   H96   0.605811  0.167185  0.669958  0.081908
    H   H97   0.531439  0.232715  0.638093  0.092665
    H   H98   0.538504  0.241339  0.574542  0.103526
    H   H99   0.620459  0.185388  0.542927  0.120212
    O   O54   0.073010  0.316090  0.545219  -0.183112
    C   C180  0.112195  0.290292  0.569401  0.018266
    C   C181  0.144597  0.340782  0.588685  0.114559
    C   C182  0.139362  0.345126  0.624343  -0.200383
    C   C183  0.171192  0.390891  0.642047  -0.035557
    C   C184  0.207967  0.432563  0.624187  -0.117655
    C   C185  0.212707  0.428666  0.588566  -0.110657
    C   C186  0.181125  0.382767  0.570833  -0.137150
    H   H100  0.147765  0.261354  0.556171  0.041357
    H   H101  0.085052  0.261376  0.587814  0.049664
    H   H102  0.110841  0.312609  0.638659  0.113778
    H   H103  0.167185  0.394189  0.669958  0.081868
    H   H104  0.232715  0.468561  0.638093  0.092688
    H   H105  0.241339  0.461495  0.574542  0.103524
    H   H106  0.185388  0.379541  0.542927  0.120205
    O   O55   0.316090  0.926989  0.545219  -0.183180
    C   C187  0.290292  0.887805  0.569401  0.018328
    C   C188  0.340782  0.855402  0.588685  0.114591
    C   C189  0.345126  0.860638  0.624343  -0.200504
    C   C190  0.390891  0.828808  0.642047  -0.035362
    C   C191  0.432563  0.792033  0.624188  -0.117854
    C   C192  0.428666  0.787293  0.588567  -0.110632
    C   C193  0.382767  0.818875  0.570833  -0.137124
    H   H107  0.261354  0.852235  0.556171  0.041339
    H   H108  0.261376  0.914948  0.587814  0.049658
    H   H109  0.312609  0.889159  0.638659  0.113801
    H   H110  0.394189  0.832815  0.669959  0.081816
    H   H111  0.468561  0.767285  0.638093  0.092766
    H   H112  0.461495  0.758660  0.574542  0.103534
    H   H113  0.379541  0.814612  0.542927  0.120187
    O   O56   0.926989  0.683910  0.545219  -0.183157
    C   C194  0.887805  0.709708  0.569401  0.018497
    C   C195  0.855402  0.659217  0.588685  0.114487
    C   C196  0.860638  0.654873  0.624343  -0.200339
    C   C197  0.828808  0.609109  0.642047  -0.035535
    C   C198  0.792033  0.567436  0.624188  -0.117765
    C   C199  0.787293  0.571334  0.588566  -0.110687
    C   C200  0.818875  0.617233  0.570833  -0.137116
    H   H114  0.852235  0.738646  0.556171  0.041311
    H   H115  0.914948  0.738623  0.587814  0.049627
    H   H116  0.889159  0.687390  0.638659  0.113756
    H   H117  0.832815  0.605811  0.669959  0.081863
    H   H118  0.767285  0.531439  0.638093  0.092754
    H   H119  0.758660  0.538504  0.574542  0.103554
    H   H120  0.814612  0.620459  0.542927  0.120191
    O   O57   0.183910  0.426989  0.954780  -0.183094
    C   C201  0.209708  0.387804  0.930599  0.018561
    C   C202  0.159218  0.355402  0.911315  0.114315
    C   C203  0.154874  0.360638  0.875657  -0.200400
    C   C204  0.109109  0.328808  0.857953  -0.035419
    C   C205  0.067437  0.292033  0.875812  -0.117804
    C   C206  0.071335  0.287293  0.911433  -0.110716
    C   C207  0.117233  0.318875  0.929166  -0.136903
    H   H121  0.238647  0.352235  0.943828  0.041318
    H   H122  0.238624  0.414948  0.912186  0.049616
    H   H123  0.187391  0.389159  0.861341  0.113781
    H   H124  0.105811  0.332816  0.830041  0.081827
    H   H125  0.031439  0.267285  0.861907  0.092758
    H   H126  0.038505  0.258660  0.925457  0.103549
    H   H127  0.120459  0.314611  0.957073  0.120100
    O   O58   0.573011  0.183909  0.954780  -0.183104
    C   C208  0.612195  0.209707  0.930599  0.018450
    C   C209  0.644597  0.159217  0.911315  0.114313
    C   C210  0.639362  0.154873  0.875657  -0.199944
    C   C211  0.671192  0.109108  0.857953  -0.036077
    C   C212  0.707967  0.067436  0.875812  -0.117457
    C   C213  0.712707  0.071334  0.911433  -0.110763
    C   C214  0.681125  0.117233  0.929166  -0.136943
    H   H128  0.647765  0.238646  0.943829  0.041332
    H   H129  0.585052  0.238623  0.912186  0.049625
    H   H130  0.610841  0.187390  0.861341  0.113678
    H   H131  0.667185  0.105811  0.830041  0.082012
    H   H132  0.732715  0.031438  0.861907  0.092688
    H   H133  0.741340  0.038504  0.925457  0.103526
    H   H134  0.685388  0.120458  0.957073  0.120117
    O   O59   0.816090  0.573010  0.954780  -0.183090
    C   C215  0.790292  0.612195  0.930599  0.018251
    C   C216  0.840783  0.644597  0.911315  0.114403
    C   C217  0.845127  0.639361  0.875657  -0.200248
    C   C218  0.890891  0.671191  0.857953  -0.035677
    C   C219  0.932564  0.707966  0.875812  -0.117556
    C   C220  0.928666  0.712707  0.911433  -0.110820
    C   C221  0.882767  0.681124  0.929166  -0.136879
    H   H135  0.761354  0.647764  0.943829  0.041373
    H   H136  0.761377  0.585051  0.912186  0.049680
    H   H137  0.812610  0.610840  0.861341  0.113751
    H   H138  0.894189  0.667184  0.830041  0.081886
    H   H139  0.968561  0.732714  0.861907  0.092681
    H   H140  0.961496  0.741339  0.925457  0.103559
    H   H141  0.879541  0.685388  0.957073  0.120087
    O   O60   0.426990  0.816089  0.954780  -0.183198
    C   C222  0.387805  0.790292  0.930599  0.018443
    C   C223  0.355403  0.840782  0.911315  0.114422
    C   C224  0.360639  0.845126  0.875657  -0.200409
    C   C225  0.328809  0.890891  0.857953  -0.035430
    C   C226  0.292034  0.932563  0.875812  -0.117792
    C   C227  0.287293  0.928665  0.911433  -0.110781
    C   C228  0.318876  0.882766  0.929166  -0.136885
    H   H142  0.352236  0.761353  0.943828  0.041318
    H   H143  0.414949  0.761376  0.912186  0.049630
    H   H144  0.389160  0.812609  0.861341  0.113783
    H   H145  0.332817  0.894188  0.830041  0.081827
    H   H146  0.267286  0.968560  0.861907  0.092761
    H   H147  0.258661  0.961495  0.925457  0.103577
    H   H148  0.314612  0.879541  0.957073  0.120091
    O   O61   0.183910  0.573010  0.045219  -0.183170
    C   C229  0.209708  0.612194  0.069401  0.018296
    C   C230  0.159218  0.644596  0.088685  0.114387
    C   C231  0.154874  0.639361  0.124343  -0.199949
    C   C232  0.109109  0.671191  0.142047  -0.036064
    C   C233  0.067437  0.707965  0.124188  -0.117451
    C   C234  0.071335  0.712706  0.088567  -0.110793
    C   C235  0.117233  0.681124  0.070834  -0.136931
    H   H149  0.238646  0.647764  0.056171  0.041358
    H   H150  0.238624  0.585051  0.087814  0.049654
    H   H151  0.187391  0.610840  0.138659  0.113685
    H   H152  0.105811  0.667183  0.169959  0.081991
    H   H153  0.031439  0.732713  0.138093  0.092690
    H   H154  0.038505  0.741339  0.074543  0.103536
    H   H155  0.120459  0.685388  0.042927  0.120115
    O   O62   0.573011  0.816089  0.045219  -0.183101
    C   C236  0.612195  0.790292  0.069401  0.018312
    C   C237  0.644597  0.840782  0.088685  0.114466
    C   C238  0.639362  0.845126  0.124343  -0.200342
    C   C239  0.671191  0.890891  0.142047  -0.035565
    C   C240  0.707966  0.932563  0.124188  -0.117615
    C   C241  0.712707  0.928665  0.088567  -0.110749
    C   C242  0.681125  0.882766  0.070834  -0.136991
    H   H156  0.647765  0.761353  0.056171  0.041349
    H   H157  0.585052  0.761376  0.087814  0.049657
    H   H158  0.610840  0.812609  0.138659  0.113769
    H   H159  0.667184  0.894188  0.169959  0.081857
    H   H160  0.732714  0.968561  0.138093  0.092688
    H   H161  0.741340  0.961495  0.074543  0.103543
    H   H162  0.685388  0.879541  0.042927  0.120130
    O   O63   0.816090  0.426989  0.045219  -0.183047
    C   C243  0.790292  0.387804  0.069401  0.018414
    C   C244  0.840783  0.355402  0.088685  0.114420
    C   C245  0.845127  0.360638  0.124343  -0.200394
    C   C246  0.890891  0.328808  0.142047  -0.035428
    C   C247  0.932564  0.292033  0.124188  -0.117774
    C   C248  0.928666  0.287292  0.088567  -0.110728
    C   C249  0.882767  0.318875  0.070834  -0.137019
    H   H163  0.761354  0.352235  0.056171  0.041347
    H   H164  0.761377  0.414948  0.087814  0.049651
    H   H165  0.812610  0.389159  0.138659  0.113776
    H   H166  0.894189  0.332815  0.169959  0.081825
    H   H167  0.968561  0.267285  0.138093  0.092752
    H   H168  0.961496  0.258660  0.074542  0.103560
    H   H169  0.879541  0.314611  0.042927  0.120164
    O   O64   0.426990  0.183909  0.045219  -0.183107
    C   C250  0.387805  0.209707  0.069401  0.018373
    C   C251  0.355403  0.159217  0.088685  0.114427
    C   C252  0.360638  0.154873  0.124343  -0.200012
    C   C253  0.328809  0.109108  0.142047  -0.036029
    C   C254  0.292034  0.067436  0.124188  -0.117462
    C   C255  0.287293  0.071334  0.088567  -0.110724
    C   C256  0.318876  0.117233  0.070834  -0.137072
    H   H170  0.352236  0.238646  0.056171  0.041348
    H   H171  0.414949  0.238623  0.087814  0.049643
    H   H172  0.389160  0.187390  0.138659  0.113688
    H   H173  0.332816  0.105811  0.169959  0.082002
    H   H174  0.267286  0.031438  0.138093  0.092684
    H   H175  0.258661  0.038504  0.074542  0.103517
    H   H176  0.314612  0.120458  0.042927  0.120182
