# Generated by REPEAT Assigner based on pymatgen
data_DB0-m2_o1_o3_f0_nbo.sym.73
_audit_creation_date              2022-05-24
_audit_creation_method            REPEAT_Assigner
_cell_length_a                    21.532872
_cell_length_b                    21.532872
_cell_length_c                    38.524226
_cell_angle_alpha                 90.000000
_cell_angle_beta                  90.000000
_cell_angle_gamma                 90.000000
_cell_volume                      17862.318724
_symmetry_space_group_name_H-M    P1
_symmetry_Int_Tables_number       1
loop_
    _symmetry_equiv_pos_site_id
    _symmetry_equiv_pos_as_xyz
    1  x,y,z
loop_
    _atom_site_type_symbol
    _atom_site_label
    _atom_site_fract_x
    _atom_site_fract_y
    _atom_site_fract_z
    _atom_type_partial_charge
    O   O1    0.588718  0.051508  0.490932  -0.634049
    O   O2    0.948492  0.588718  0.490932  -0.634011
    O   O3    0.411282  0.948492  0.490932  -0.634050
    O   O4    0.051508  0.411282  0.490932  -0.634093
    O   O5    0.588718  0.948492  0.509068  -0.634025
    O   O6    0.948492  0.411282  0.509068  -0.634039
    O   O7    0.411282  0.051508  0.509068  -0.634078
    O   O8    0.051508  0.588718  0.509068  -0.634073
    O   O9    0.088718  0.551507  0.990932  -0.634076
    O   O10   0.448492  0.088718  0.990932  -0.634091
    O   O11   0.911282  0.448492  0.990932  -0.634102
    O   O12   0.551508  0.911282  0.990932  -0.634087
    O   O13   0.088718  0.448492  0.009068  -0.634104
    O   O14   0.448492  0.911282  0.009068  -0.634073
    O   O15   0.911282  0.551507  0.009068  -0.634070
    O   O16   0.551508  0.088718  0.009068  -0.634092
    C   C1    0.617717  0.000000  0.500000  0.854744
    C   C2    0.000000  0.617717  0.500000  0.854751
    C   C3    0.382283  0.000000  0.500000  0.854800
    C   C4    0.000000  0.382283  0.500000  0.854796
    C   C5    0.117717  0.500000  0.000000  0.854857
    C   C6    0.500000  0.117716  0.000000  0.854871
    C   C7    0.882283  0.500000  0.000000  0.854881
    C   C8    0.500000  0.882283  0.000000  0.854877
    O   O17   0.516265  0.051483  0.549679  -0.501978
    O   O18   0.948517  0.516265  0.549679  -0.501908
    O   O19   0.483735  0.948517  0.549679  -0.501944
    O   O20   0.051483  0.483735  0.549679  -0.501987
    O   O21   0.516265  0.948517  0.450321  -0.501912
    O   O22   0.948517  0.483735  0.450321  -0.501915
    O   O23   0.483735  0.051483  0.450321  -0.501955
    O   O24   0.051483  0.516265  0.450321  -0.501975
    O   O25   0.016265  0.551482  0.049679  -0.501956
    O   O26   0.448517  0.016264  0.049679  -0.501947
    O   O27   0.983735  0.448517  0.049679  -0.501978
    O   O28   0.551483  0.983735  0.049679  -0.501963
    O   O29   0.016265  0.448517  0.950321  -0.501979
    O   O30   0.448517  0.983735  0.950321  -0.501965
    O   O31   0.983735  0.551482  0.950321  -0.501956
    O   O32   0.551483  0.016264  0.950321  -0.501973
    C   C9    0.500000  0.000000  0.565906  0.448455
    C   C10   0.000000  0.500000  0.565906  0.448418
    C   C11   0.500000  0.000000  0.434094  0.448392
    C   C12   0.000000  0.500000  0.434094  0.448405
    C   C13   0.000000  0.500000  0.065906  0.448505
    C   C14   0.500000  0.000000  0.065906  0.448404
    C   C15   0.000000  0.500000  0.934094  0.448423
    C   C16   0.500000  0.000000  0.934094  0.448415
    Cu  Cu1   0.500000  0.060868  0.500000  0.919282
    Cu  Cu2   0.939132  0.500000  0.500000  0.919309
    Cu  Cu3   0.500000  0.939132  0.500000  0.919260
    Cu  Cu4   0.060868  0.500000  0.500000  0.919249
    Cu  Cu5   0.000000  0.560867  0.000000  0.919347
    Cu  Cu6   0.439132  0.000000  0.000000  0.919282
    Cu  Cu7   0.000000  0.439132  0.000000  0.919236
    Cu  Cu8   0.560868  0.000000  0.000000  0.919319
    C   C17   0.554871  0.992735  0.878191  -0.135723
    C   C18   0.007264  0.554870  0.878191  -0.135688
    C   C19   0.445130  0.007264  0.878191  -0.135750
    C   C20   0.992736  0.445129  0.878191  -0.135714
    C   C21   0.554870  0.007264  0.121809  -0.135736
    C   C22   0.007264  0.445129  0.121809  -0.135719
    C   C23   0.445130  0.992735  0.121809  -0.135740
    C   C24   0.992736  0.554870  0.121809  -0.135682
    C   C25   0.054870  0.492736  0.378191  -0.135723
    C   C26   0.507264  0.054870  0.378191  -0.135683
    C   C27   0.945130  0.507264  0.378191  -0.135707
    C   C28   0.492736  0.945129  0.378191  -0.135720
    C   C29   0.054870  0.507264  0.621809  -0.135700
    C   C30   0.507264  0.945130  0.621809  -0.135703
    C   C31   0.945130  0.492736  0.621809  -0.135714
    C   C32   0.492736  0.054870  0.621809  -0.135724
    H   H1    0.598271  0.986889  0.891886  0.103186
    H   H2    0.013111  0.598270  0.891886  0.103172
    H   H3    0.401729  0.013110  0.891886  0.103194
    H   H4    0.986890  0.401729  0.891886  0.103183
    H   H5    0.598271  0.013110  0.108114  0.103182
    H   H6    0.013111  0.401729  0.108114  0.103193
    H   H7    0.401729  0.986889  0.108114  0.103184
    H   H8    0.986890  0.598270  0.108114  0.103176
    H   H9    0.098271  0.486890  0.391886  0.103187
    H   H10   0.513110  0.098270  0.391886  0.103175
    H   H11   0.901729  0.513110  0.391886  0.103184
    H   H12   0.486890  0.901729  0.391886  0.103186
    H   H13   0.098271  0.513110  0.608114  0.103181
    H   H14   0.513111  0.901729  0.608114  0.103185
    H   H15   0.901729  0.486889  0.608114  0.103180
    H   H16   0.486890  0.098271  0.608114  0.103193
    C   C33   0.554920  0.992798  0.842433  -0.151556
    C   C34   0.007202  0.554919  0.842433  -0.151577
    C   C35   0.445080  0.007202  0.842433  -0.151556
    C   C36   0.992798  0.445080  0.842433  -0.151570
    C   C37   0.554920  0.007202  0.157567  -0.151550
    C   C38   0.007202  0.445080  0.157567  -0.151563
    C   C39   0.445080  0.992798  0.157567  -0.151539
    C   C40   0.992798  0.554919  0.157567  -0.151564
    C   C41   0.054920  0.492798  0.342433  -0.151571
    C   C42   0.507202  0.054920  0.342433  -0.151583
    C   C43   0.945080  0.507202  0.342433  -0.151574
    C   C44   0.492798  0.945080  0.342433  -0.151551
    C   C45   0.054920  0.507202  0.657567  -0.151572
    C   C46   0.507202  0.945080  0.657567  -0.151568
    C   C47   0.945080  0.492798  0.657567  -0.151546
    C   C48   0.492798  0.054920  0.657567  -0.151565
    H   H17   0.598731  0.988525  0.828992  0.107147
    H   H18   0.011475  0.598730  0.828992  0.107148
    H   H19   0.401269  0.011475  0.828992  0.107149
    H   H20   0.988525  0.401269  0.828992  0.107149
    H   H21   0.598731  0.011475  0.171008  0.107148
    H   H22   0.011475  0.401269  0.171008  0.107146
    H   H23   0.401269  0.988525  0.171008  0.107142
    H   H24   0.988525  0.598730  0.171008  0.107144
    H   H25   0.098731  0.488525  0.328992  0.107150
    H   H26   0.511475  0.098731  0.328992  0.107150
    H   H27   0.901269  0.511475  0.328992  0.107149
    H   H28   0.488525  0.901269  0.328992  0.107142
    H   H29   0.098731  0.511475  0.671008  0.107147
    H   H30   0.511475  0.901269  0.671008  0.107144
    H   H31   0.901269  0.488525  0.671008  0.107141
    H   H32   0.488525  0.098731  0.671008  0.107148
    C   C49   0.500000  0.000000  0.824251  0.162207
    C   C50   0.000000  0.500000  0.824251  0.162228
    C   C51   0.500000  0.000000  0.175749  0.162186
    C   C52   0.000000  0.500000  0.175749  0.162225
    C   C53   0.000000  0.500000  0.324251  0.162193
    C   C54   0.500000  0.000000  0.324251  0.162189
    C   C55   0.000000  0.500000  0.675749  0.162180
    C   C56   0.500000  0.000000  0.675749  0.162190
    C   C57   0.500000  0.000000  0.896190  0.215473
    C   C58   0.000000  0.500000  0.896190  0.215429
    C   C59   0.500000  0.000000  0.103810  0.215504
    C   C60   0.000000  0.500000  0.103810  0.215344
    C   C61   0.000000  0.500000  0.396190  0.215486
    C   C62   0.500000  0.000000  0.396189  0.215476
    C   C63   0.000000  0.500000  0.603810  0.215485
    C   C64   0.500000  0.000000  0.603810  0.215454
    C   C65   0.460909  0.039160  0.767886  -0.104992
    C   C66   0.960840  0.460908  0.767886  -0.104978
    C   C67   0.539092  0.960839  0.767886  -0.105011
    C   C68   0.039160  0.539091  0.767886  -0.104993
    C   C69   0.460908  0.960839  0.232114  -0.105007
    C   C70   0.960840  0.539091  0.232114  -0.105024
    C   C71   0.539092  0.039160  0.232114  -0.105012
    C   C72   0.039160  0.460908  0.232114  -0.105006
    C   C73   0.960908  0.539160  0.267886  -0.105022
    C   C74   0.460839  0.960908  0.267886  -0.105016
    C   C75   0.039092  0.460839  0.267886  -0.105043
    C   C76   0.539160  0.039091  0.267886  -0.105014
    C   C77   0.960908  0.460839  0.732114  -0.105043
    C   C78   0.460840  0.039091  0.732114  -0.105049
    C   C79   0.039092  0.539160  0.732114  -0.105035
    C   C80   0.539161  0.960908  0.732114  -0.105045
    H   H33   0.430637  0.071112  0.781338  0.094665
    H   H34   0.928888  0.430637  0.781338  0.094657
    H   H35   0.569363  0.928887  0.781338  0.094665
    H   H36   0.071113  0.569363  0.781338  0.094659
    H   H37   0.430637  0.928887  0.218662  0.094668
    H   H38   0.928887  0.569363  0.218662  0.094666
    H   H39   0.569363  0.071112  0.218662  0.094669
    H   H40   0.071112  0.430637  0.218662  0.094671
    H   H41   0.930637  0.571112  0.281338  0.094677
    H   H42   0.428887  0.930637  0.281338  0.094667
    H   H43   0.069363  0.428887  0.281338  0.094676
    H   H44   0.571113  0.069363  0.281338  0.094665
    H   H45   0.930637  0.428887  0.718662  0.094675
    H   H46   0.428888  0.069363  0.718662  0.094672
    H   H47   0.069363  0.571112  0.718662  0.094676
    H   H48   0.571113  0.930637  0.718662  0.094684
    C   C81   0.500000  0.000000  0.713917  -0.015413
    C   C82   0.000000  0.500000  0.713917  -0.015434
    C   C83   0.500000  0.000000  0.286083  -0.015445
    C   C84   0.000000  0.500000  0.286083  -0.015427
    C   C85   0.000000  0.500000  0.213917  -0.015456
    C   C86   0.500000  0.000000  0.213917  -0.015470
    C   C87   0.000000  0.500000  0.786083  -0.015483
    C   C88   0.500000  0.000000  0.786083  -0.015464
    C   C89   0.717813  0.972581  0.473098  0.109235
    C   C90   0.027419  0.717813  0.473098  0.109093
    C   C91   0.282187  0.027419  0.473098  0.109112
    C   C92   0.972581  0.282187  0.473098  0.109130
    C   C93   0.717813  0.027419  0.526902  0.109126
    C   C94   0.027419  0.282187  0.526902  0.109117
    C   C95   0.282187  0.972581  0.526902  0.109157
    C   C96   0.972581  0.717813  0.526902  0.109256
    C   C97   0.217813  0.472580  0.973098  0.109225
    C   C98   0.527419  0.217812  0.973098  0.109167
    C   C99   0.782187  0.527419  0.973098  0.109166
    C   C100  0.472581  0.782187  0.973098  0.109183
    C   C101  0.217813  0.527419  0.026902  0.109205
    C   C102  0.527419  0.782187  0.026902  0.109161
    C   C103  0.782187  0.472580  0.026902  0.109217
    C   C104  0.472581  0.217812  0.026902  0.109217
    C   C105  0.781820  0.972894  0.473026  -0.214945
    C   C106  0.027106  0.781820  0.473026  -0.214913
    C   C107  0.218180  0.027106  0.473026  -0.214931
    C   C108  0.972894  0.218180  0.473026  -0.214942
    C   C109  0.781820  0.027106  0.526974  -0.214925
    C   C110  0.027106  0.218180  0.526974  -0.214947
    C   C111  0.218180  0.972894  0.526974  -0.214958
    C   C112  0.972894  0.781820  0.526974  -0.214971
    C   C113  0.281820  0.472893  0.973026  -0.214971
    C   C114  0.527106  0.281820  0.973026  -0.214969
    C   C115  0.718180  0.527106  0.973026  -0.214942
    C   C116  0.472894  0.718180  0.973026  -0.214970
    C   C117  0.281820  0.527106  0.026974  -0.214958
    C   C118  0.527106  0.718180  0.026974  -0.214967
    C   C119  0.718180  0.472893  0.026974  -0.214967
    C   C120  0.472894  0.281820  0.026974  -0.214989
    H   H49   0.805997  0.951087  0.451689  0.116610
    H   H50   0.048913  0.805997  0.451689  0.116596
    H   H51   0.194003  0.048913  0.451689  0.116612
    H   H52   0.951087  0.194003  0.451689  0.116617
    H   H53   0.805997  0.048913  0.548311  0.116598
    H   H54   0.048913  0.194003  0.548311  0.116616
    H   H55   0.194003  0.951087  0.548311  0.116620
    H   H56   0.951087  0.805997  0.548311  0.116616
    H   H57   0.305997  0.451087  0.951689  0.116633
    H   H58   0.548913  0.305997  0.951689  0.116629
    H   H59   0.694003  0.548913  0.951689  0.116620
    H   H60   0.451087  0.694003  0.951689  0.116621
    H   H61   0.305997  0.548913  0.048311  0.116624
    H   H62   0.548913  0.694002  0.048311  0.116616
    H   H63   0.694003  0.451087  0.048311  0.116624
    H   H64   0.451087  0.305997  0.048311  0.116629
    C   C121  0.814174  0.000000  0.500000  0.028241
    C   C122  0.000000  0.814174  0.500000  0.028258
    C   C123  0.185826  0.000000  0.500000  0.028317
    C   C124  0.000000  0.185826  0.500000  0.028321
    C   C125  0.314174  0.500000  0.000000  0.028299
    C   C126  0.500000  0.314173  0.000000  0.028329
    C   C127  0.685826  0.500000  0.000000  0.028313
    C   C128  0.500000  0.685826  0.000000  0.028350
    C   C129  0.685516  0.000000  0.500000  -0.231024
    C   C130  0.000000  0.685516  0.500000  -0.231014
    C   C131  0.314484  0.000000  0.500000  -0.230919
    C   C132  0.000000  0.314484  0.500000  -0.230906
    C   C133  0.185516  0.500000  0.000000  -0.231044
    C   C134  0.500000  0.185515  0.000000  -0.231001
    C   C135  0.814484  0.500000  0.000000  -0.231041
    C   C136  0.500000  0.814484  0.000000  -0.231010
    O   O33   0.982064  0.088607  0.471535  -0.571902
    O   O34   0.911392  0.982064  0.471535  -0.571893
    O   O35   0.017936  0.911392  0.471535  -0.571899
    O   O36   0.088608  0.017936  0.471535  -0.571899
    O   O37   0.982064  0.911392  0.528465  -0.571942
    O   O38   0.911392  0.017936  0.528465  -0.571948
    O   O39   0.017936  0.088607  0.528465  -0.571946
    O   O40   0.088608  0.982064  0.528465  -0.571949
    O   O41   0.482064  0.588607  0.971535  -0.571970
    O   O42   0.411393  0.482064  0.971535  -0.571996
    O   O43   0.517936  0.411392  0.971535  -0.571981
    O   O44   0.588608  0.517935  0.971535  -0.571980
    O   O45   0.482064  0.411392  0.028465  -0.571901
    O   O46   0.411393  0.517935  0.028465  -0.571913
    O   O47   0.517936  0.588607  0.028465  -0.571888
    O   O48   0.588608  0.482064  0.028465  -0.571902
    C   C137  0.000000  0.117797  0.500000  0.680702
    C   C138  0.882203  0.000000  0.500000  0.680783
    C   C139  0.000000  0.882203  0.500000  0.680768
    C   C140  0.117797  0.000000  0.500000  0.680715
    C   C141  0.500000  0.617796  0.000000  0.680703
    C   C142  0.382203  0.500000  0.000000  0.680772
    C   C143  0.500000  0.382203  0.000000  0.680751
    C   C144  0.617797  0.500000  0.000000  0.680746
    Cu  Cu9   0.000000  0.000000  0.466223  0.907618
    Cu  Cu10  0.000000  0.000000  0.533777  0.907391
    Cu  Cu11  0.500000  0.500000  0.966223  0.907447
    Cu  Cu12  0.500000  0.500000  0.033777  0.907644
    C   C145  0.685217  0.943143  0.444305  0.230887
    C   C146  0.675176  0.975489  0.413900  -0.035213
    Cl  Cl1   0.695837  0.053947  0.410840  -0.097120
    C   C147  0.649052  0.945930  0.385737  -0.059993
    C   C148  0.632604  0.884194  0.388002  -0.124748
    C   C149  0.641945  0.852077  0.418499  -0.116166
    C   C150  0.668633  0.881433  0.446565  -0.195185
    H   H65   0.641288  0.971214  0.361888  0.068819
    H   H66   0.612018  0.861082  0.365915  0.113811
    H   H67   0.628976  0.803696  0.420278  0.118619
    H   H68   0.677190  0.855918  0.470248  0.122393
    C   C151  0.056857  0.685217  0.444305  0.231256
    C   C152  0.024511  0.675176  0.413900  -0.035453
    Cl  Cl2   0.946053  0.695837  0.410840  -0.097083
    C   C153  0.054070  0.649052  0.385737  -0.059857
    C   C154  0.115806  0.632603  0.388002  -0.124846
    C   C155  0.147923  0.641945  0.418499  -0.116119
    C   C156  0.118567  0.668633  0.446565  -0.195343
    H   H69   0.028786  0.641288  0.361888  0.068792
    H   H70   0.138918  0.612018  0.365915  0.113836
    H   H71   0.196304  0.628976  0.420278  0.118626
    H   H72   0.144082  0.677190  0.470248  0.122411
    C   C157  0.314783  0.056857  0.444305  0.230925
    C   C158  0.324824  0.024511  0.413900  -0.035229
    Cl  Cl3   0.304163  0.946053  0.410840  -0.097112
    C   C159  0.350948  0.054070  0.385737  -0.059991
    C   C160  0.367397  0.115806  0.388002  -0.124734
    C   C161  0.358055  0.147923  0.418499  -0.116191
    C   C162  0.331367  0.118567  0.446565  -0.195174
    H   H73   0.358712  0.028786  0.361888  0.068817
    H   H74   0.387982  0.138918  0.365915  0.113809
    H   H75   0.371024  0.196304  0.420278  0.118625
    H   H76   0.322810  0.144082  0.470248  0.122393
    C   C163  0.943143  0.314783  0.444305  0.230913
    C   C164  0.975489  0.324824  0.413900  -0.035228
    Cl  Cl4   0.053947  0.304163  0.410840  -0.097117
    C   C165  0.945930  0.350948  0.385737  -0.059984
    C   C166  0.884194  0.367396  0.388002  -0.124761
    C   C167  0.852077  0.358055  0.418499  -0.116163
    C   C168  0.881433  0.331367  0.446565  -0.195181
    H   H77   0.971214  0.358712  0.361888  0.068823
    H   H78   0.861082  0.387982  0.365915  0.113814
    H   H79   0.803696  0.371024  0.420278  0.118619
    H   H80   0.855918  0.322810  0.470248  0.122395
    C   C169  0.685217  0.056857  0.555695  0.231256
    C   C170  0.675176  0.024511  0.586100  -0.035480
    Cl  Cl5   0.695837  0.946053  0.589160  -0.097082
    C   C171  0.649052  0.054070  0.614263  -0.059816
    C   C172  0.632604  0.115806  0.611998  -0.124868
    C   C173  0.641945  0.147923  0.581501  -0.116092
    C   C174  0.668633  0.118567  0.553435  -0.195364
    H   H81   0.641288  0.028786  0.638112  0.068783
    H   H82   0.612018  0.138918  0.634085  0.113833
    H   H83   0.628976  0.196304  0.579722  0.118620
    H   H84   0.677190  0.144082  0.529752  0.122416
    C   C175  0.056857  0.314783  0.555695  0.230956
    C   C176  0.024511  0.324824  0.586100  -0.035267
    Cl  Cl6   0.946053  0.304163  0.589160  -0.097108
    C   C177  0.054070  0.350948  0.614263  -0.059960
    C   C178  0.115807  0.367396  0.611998  -0.124770
    C   C179  0.147923  0.358055  0.581501  -0.116146
    C   C180  0.118567  0.331367  0.553435  -0.195215
    H   H85   0.028786  0.358712  0.638112  0.068815
    H   H86   0.138918  0.387982  0.634085  0.113815
    H   H87   0.196304  0.371024  0.579722  0.118616
    H   H88   0.144082  0.322810  0.529752  0.122403
    C   C181  0.314783  0.943143  0.555695  0.230885
    C   C182  0.324824  0.975489  0.586100  -0.035213
    Cl  Cl7   0.304163  0.053947  0.589160  -0.097117
    C   C183  0.350948  0.945930  0.614263  -0.060003
    C   C184  0.367397  0.884194  0.611998  -0.124722
    C   C185  0.358055  0.852077  0.581501  -0.116186
    C   C186  0.331367  0.881433  0.553435  -0.195170
    H   H89   0.358712  0.971214  0.638112  0.068825
    H   H90   0.387982  0.861082  0.634085  0.113803
    H   H91   0.371024  0.803696  0.579722  0.118621
    H   H92   0.322810  0.855918  0.529752  0.122397
    C   C187  0.943143  0.685217  0.555695  0.230861
    C   C188  0.975489  0.675176  0.586100  -0.035199
    Cl  Cl8   0.053947  0.695837  0.589160  -0.097122
    C   C189  0.945930  0.649052  0.614263  -0.060024
    C   C190  0.884194  0.632603  0.611998  -0.124710
    C   C191  0.852077  0.641945  0.581501  -0.116193
    C   C192  0.881433  0.668633  0.553435  -0.195173
    H   H93   0.971214  0.641288  0.638112  0.068827
    H   H94   0.861082  0.612018  0.634085  0.113803
    H   H95   0.803696  0.628976  0.579722  0.118624
    H   H96   0.855918  0.677190  0.529752  0.122397
    C   C193  0.185217  0.443142  0.944305  0.230851
    C   C194  0.175176  0.475489  0.913900  -0.035213
    Cl  Cl9   0.195837  0.553947  0.910840  -0.097109
    C   C195  0.149052  0.445929  0.885737  -0.059971
    C   C196  0.132604  0.384193  0.888002  -0.124743
    C   C197  0.141945  0.352076  0.918499  -0.116177
    C   C198  0.168633  0.381432  0.946565  -0.195145
    H   H97   0.141288  0.471214  0.861888  0.068811
    H   H98   0.112018  0.361082  0.865915  0.113812
    H   H99   0.128976  0.303695  0.920278  0.118621
    H   H100  0.177190  0.355918  0.970248  0.122386
    C   C199  0.556857  0.185217  0.944305  0.230875
    C   C200  0.524511  0.175176  0.913900  -0.035219
    Cl  Cl10  0.446053  0.195837  0.910840  -0.097109
    C   C201  0.554070  0.149051  0.885737  -0.059955
    C   C202  0.615807  0.132603  0.888002  -0.124740
    C   C203  0.647923  0.141945  0.918499  -0.116210
    C   C204  0.618567  0.168633  0.946565  -0.195134
    H   H101  0.528786  0.141288  0.861888  0.068789
    H   H102  0.638918  0.112017  0.865915  0.113817
    H   H103  0.696305  0.128976  0.920278  0.118625
    H   H104  0.644082  0.177190  0.970248  0.122387
    C   C205  0.814783  0.556857  0.944305  0.230902
    C   C206  0.824824  0.524511  0.913900  -0.035221
    Cl  Cl11  0.804163  0.446053  0.910840  -0.097113
    C   C207  0.850948  0.554070  0.885737  -0.059970
    C   C208  0.867397  0.615806  0.888002  -0.124731
    C   C209  0.858055  0.647923  0.918499  -0.116203
    C   C210  0.831367  0.618567  0.946565  -0.195151
    H   H105  0.858712  0.528786  0.861888  0.068812
    H   H106  0.887982  0.638918  0.865915  0.113809
    H   H107  0.871024  0.696304  0.920278  0.118628
    H   H108  0.822810  0.644082  0.970248  0.122387
    C   C211  0.443143  0.814783  0.944305  0.230897
    C   C212  0.475489  0.824824  0.913900  -0.035223
    Cl  Cl12  0.553947  0.804163  0.910840  -0.097119
    C   C213  0.445930  0.850948  0.885737  -0.059959
    C   C214  0.384194  0.867396  0.888002  -0.124764
    C   C215  0.352077  0.858054  0.918499  -0.116168
    C   C216  0.381433  0.831366  0.946565  -0.195170
    H   H109  0.471214  0.858712  0.861888  0.068813
    H   H110  0.361082  0.887982  0.865915  0.113814
    H   H111  0.303696  0.871023  0.920278  0.118619
    H   H112  0.355918  0.822810  0.970248  0.122390
    C   C217  0.185217  0.556857  0.055695  0.230857
    C   C218  0.175176  0.524511  0.086100  -0.035216
    Cl  Cl13  0.195837  0.446053  0.089160  -0.097106
    C   C219  0.149052  0.554070  0.114263  -0.059940
    C   C220  0.132604  0.615806  0.111998  -0.124721
    C   C221  0.141945  0.647923  0.081501  -0.116219
    C   C222  0.168633  0.618567  0.053435  -0.195132
    H   H113  0.141288  0.528786  0.138112  0.068787
    H   H114  0.112018  0.638918  0.134085  0.113807
    H   H115  0.128976  0.696304  0.079722  0.118631
    H   H116  0.177190  0.644082  0.029752  0.122388
    C   C223  0.556857  0.814783  0.055695  0.230949
    C   C224  0.524511  0.824824  0.086100  -0.035252
    Cl  Cl14  0.446053  0.804163  0.089160  -0.097111
    C   C225  0.554070  0.850948  0.114263  -0.059952
    C   C226  0.615806  0.867396  0.111998  -0.124756
    C   C227  0.647923  0.858054  0.081501  -0.116176
    C   C228  0.618567  0.831366  0.053435  -0.195193
    H   H117  0.528786  0.858712  0.138112  0.068811
    H   H118  0.638918  0.887982  0.134085  0.113810
    H   H119  0.696304  0.871023  0.079722  0.118623
    H   H120  0.644082  0.822810  0.029752  0.122399
    C   C229  0.814783  0.443142  0.055695  0.230853
    C   C230  0.824824  0.475489  0.086100  -0.035204
    Cl  Cl15  0.804163  0.553947  0.089160  -0.097110
    C   C231  0.850948  0.445929  0.114263  -0.059982
    C   C232  0.867397  0.384193  0.111998  -0.124718
    C   C233  0.858055  0.352076  0.081501  -0.116204
    C   C234  0.831367  0.381432  0.053435  -0.195136
    H   H121  0.858712  0.471214  0.138112  0.068816
    H   H122  0.887982  0.361082  0.134085  0.113806
    H   H123  0.871024  0.303695  0.079722  0.118626
    H   H124  0.822810  0.355918  0.029752  0.122388
    C   C235  0.443143  0.185217  0.055694  0.230861
    C   C236  0.475489  0.175176  0.086100  -0.035209
    Cl  Cl16  0.553947  0.195837  0.089160  -0.097116
    C   C237  0.445930  0.149051  0.114263  -0.059992
    C   C238  0.384194  0.132603  0.111998  -0.124727
    C   C239  0.352077  0.141945  0.081501  -0.116195
    C   C240  0.381433  0.168633  0.053435  -0.195147
    H   H125  0.471214  0.141288  0.138112  0.068820
    H   H126  0.361082  0.112017  0.134085  0.113807
    H   H127  0.303696  0.128976  0.079722  0.118624
    H   H128  0.355918  0.177190  0.029752  0.122385
