# Generated by REPEAT Assigner based on pymatgen
data_DB0-m2_o1_o3_f0_nbo.sym.94
_audit_creation_date              2022-05-24
_audit_creation_method            REPEAT_Assigner
_cell_length_a                    21.571768
_cell_length_b                    21.571768
_cell_length_c                    38.567123
_cell_angle_alpha                 90.000000
_cell_angle_beta                  90.000000
_cell_angle_gamma                 90.000000
_cell_volume                      17946.870589
_symmetry_space_group_name_H-M    P1
_symmetry_Int_Tables_number       1
loop_
    _symmetry_equiv_pos_site_id
    _symmetry_equiv_pos_as_xyz
    1  x,y,z
loop_
    _atom_site_type_symbol
    _atom_site_label
    _atom_site_fract_x
    _atom_site_fract_y
    _atom_site_fract_z
    _atom_type_partial_charge
    O   O1    0.588045  0.051225  0.512218  -0.598629
    O   O2    0.948775  0.588045  0.512218  -0.598633
    O   O3    0.411955  0.948775  0.512218  -0.598638
    O   O4    0.051225  0.411955  0.512218  -0.598609
    O   O5    0.588388  0.949332  0.492225  -0.594596
    O   O6    0.949332  0.411612  0.492225  -0.594596
    O   O7    0.411612  0.050668  0.492225  -0.594601
    O   O8    0.050668  0.588388  0.492225  -0.594530
    O   O9    0.088045  0.551225  0.012218  -0.598623
    O   O10   0.448775  0.088045  0.012218  -0.598647
    O   O11   0.911955  0.448775  0.012218  -0.598616
    O   O12   0.551225  0.911955  0.012218  -0.598588
    O   O13   0.088388  0.449332  0.992225  -0.594556
    O   O14   0.449332  0.911612  0.992225  -0.594638
    O   O15   0.911612  0.550668  0.992225  -0.594617
    O   O16   0.550668  0.088388  0.992225  -0.594524
    C   C1    0.617185  0.000353  0.502258  0.739029
    C   C2    0.999647  0.617185  0.502258  0.738970
    C   C3    0.382815  0.999647  0.502258  0.739053
    C   C4    0.000353  0.382815  0.502258  0.738933
    C   C5    0.117185  0.500353  0.002258  0.738978
    C   C6    0.499647  0.117185  0.002258  0.738946
    C   C7    0.882815  0.499647  0.002258  0.738989
    C   C8    0.500353  0.882815  0.002258  0.738965
    O   O17   0.482094  0.050900  0.551677  -0.615508
    O   O18   0.949100  0.482094  0.551677  -0.615510
    O   O19   0.517906  0.949100  0.551677  -0.615511
    O   O20   0.050900  0.517906  0.551677  -0.615496
    O   O21   0.482433  0.948979  0.452755  -0.608382
    O   O22   0.948979  0.517567  0.452755  -0.608393
    O   O23   0.517567  0.051021  0.452755  -0.608375
    O   O24   0.051021  0.482433  0.452755  -0.608307
    O   O25   0.982094  0.550900  0.051677  -0.615514
    O   O26   0.449100  0.982094  0.051677  -0.615538
    O   O27   0.017906  0.449100  0.051677  -0.615512
    O   O28   0.550900  0.017906  0.051677  -0.615478
    O   O29   0.982433  0.448979  0.952755  -0.608323
    O   O30   0.448979  0.017567  0.952755  -0.608425
    O   O31   0.017567  0.551021  0.952755  -0.608395
    O   O32   0.551021  0.982433  0.952755  -0.608289
    C   C9    0.500000  0.000000  0.567959  0.695904
    C   C10   0.000000  0.500000  0.567959  0.695927
    C   C11   0.500000  0.000000  0.436474  0.700711
    C   C12   0.000000  0.500000  0.436474  0.700790
    C   C13   0.000000  0.500000  0.067959  0.695912
    C   C14   0.500000  0.000000  0.067959  0.695882
    C   C15   0.000000  0.500000  0.936474  0.700776
    C   C16   0.500000  0.000000  0.936474  0.700750
    Cu  Cu1   0.499800  0.060463  0.502217  0.957937
    Cu  Cu2   0.939537  0.499801  0.502217  0.957766
    Cu  Cu3   0.500199  0.939537  0.502217  0.957802
    Cu  Cu4   0.060463  0.500200  0.502217  0.957922
    Cu  Cu5   0.999800  0.560463  0.002217  0.957847
    Cu  Cu6   0.439537  0.999801  0.002217  0.957672
    Cu  Cu7   0.000199  0.439537  0.002217  0.957859
    Cu  Cu8   0.560463  0.000200  0.002217  0.958067
    C   C17   0.554625  0.991625  0.880401  -0.091537
    C   C18   0.008375  0.554625  0.880401  -0.091526
    C   C19   0.445375  0.008375  0.880401  -0.091549
    C   C20   0.991625  0.445375  0.880401  -0.091537
    C   C21   0.554487  0.009236  0.124030  -0.089527
    C   C22   0.009236  0.445513  0.124030  -0.089535
    C   C23   0.445513  0.990764  0.124030  -0.089543
    C   C24   0.990764  0.554487  0.124030  -0.089521
    C   C25   0.054625  0.491625  0.380401  -0.091523
    C   C26   0.508375  0.054625  0.380401  -0.091608
    C   C27   0.945375  0.508375  0.380401  -0.091530
    C   C28   0.491625  0.945375  0.380401  -0.091612
    C   C29   0.054487  0.509236  0.624030  -0.089517
    C   C30   0.509236  0.945513  0.624030  -0.089536
    C   C31   0.945513  0.490764  0.624030  -0.089529
    C   C32   0.490764  0.054487  0.624030  -0.089529
    H   H1    0.598105  0.985653  0.893896  0.119741
    H   H2    0.014347  0.598105  0.893896  0.119761
    H   H3    0.401895  0.014347  0.893896  0.119767
    H   H4    0.985653  0.401895  0.893896  0.119739
    H   H5    0.597867  0.015912  0.110539  0.115607
    H   H6    0.015912  0.402133  0.110539  0.115605
    H   H7    0.402133  0.984088  0.110539  0.115603
    H   H8    0.984088  0.597867  0.110539  0.115597
    H   H9    0.098105  0.485653  0.393896  0.119737
    H   H10   0.514347  0.098105  0.393896  0.119784
    H   H11   0.901895  0.514347  0.393896  0.119763
    H   H12   0.485653  0.901895  0.393896  0.119781
    H   H13   0.097867  0.515912  0.610539  0.115602
    H   H14   0.515912  0.902133  0.610539  0.115605
    H   H15   0.902133  0.484088  0.610539  0.115600
    H   H16   0.484088  0.097867  0.610539  0.115606
    C   C33   0.554677  0.991971  0.844664  -0.157835
    C   C34   0.008029  0.554677  0.844664  -0.157845
    C   C35   0.445323  0.008029  0.844664  -0.157837
    C   C36   0.991971  0.445323  0.844664  -0.157821
    C   C37   0.554541  0.008902  0.159766  -0.153218
    C   C38   0.008902  0.445459  0.159766  -0.153203
    C   C39   0.445459  0.991098  0.159766  -0.153200
    C   C40   0.991098  0.554541  0.159766  -0.153212
    C   C41   0.054677  0.491971  0.344664  -0.157832
    C   C42   0.508029  0.054677  0.344664  -0.157820
    C   C43   0.945323  0.508029  0.344664  -0.157832
    C   C44   0.491971  0.945323  0.344664  -0.157810
    C   C45   0.054541  0.508902  0.659766  -0.153215
    C   C46   0.508902  0.945459  0.659766  -0.153198
    C   C47   0.945459  0.491098  0.659766  -0.153198
    C   C48   0.491098  0.054541  0.659766  -0.153209
    H   H17   0.598393  0.987203  0.831274  0.112758
    H   H18   0.012797  0.598393  0.831274  0.112756
    H   H19   0.401607  0.012797  0.831274  0.112751
    H   H20   0.987203  0.401607  0.831274  0.112754
    H   H21   0.598172  0.014376  0.173158  0.108806
    H   H22   0.014376  0.401828  0.173158  0.108803
    H   H23   0.401828  0.985624  0.173158  0.108803
    H   H24   0.985624  0.598172  0.173158  0.108807
    H   H25   0.098393  0.487203  0.331274  0.112756
    H   H26   0.512797  0.098393  0.331274  0.112752
    H   H27   0.901607  0.512797  0.331274  0.112749
    H   H28   0.487203  0.901607  0.331274  0.112750
    H   H29   0.098172  0.514376  0.673158  0.108804
    H   H30   0.514376  0.901828  0.673158  0.108801
    H   H31   0.901828  0.485624  0.673158  0.108802
    H   H32   0.485624  0.098172  0.673158  0.108805
    C   C49   0.500000  0.000000  0.826462  0.100203
    C   C50   0.000000  0.500000  0.826462  0.100210
    C   C51   0.500000  0.000000  0.177967  0.103954
    C   C52   0.000000  0.500000  0.177967  0.103961
    C   C53   0.000000  0.500000  0.326462  0.100204
    C   C54   0.500000  0.000000  0.326462  0.100191
    C   C55   0.000000  0.500000  0.677967  0.103957
    C   C56   0.500000  0.000000  0.677967  0.103957
    C   C57   0.500000  0.000000  0.898481  -0.043114
    C   C58   0.000000  0.500000  0.898481  -0.043150
    C   C59   0.500000  0.000000  0.105951  -0.028329
    C   C60   0.000000  0.500000  0.105951  -0.028360
    C   C61   0.000000  0.500000  0.398481  -0.043165
    C   C62   0.500000  0.000000  0.398481  -0.043003
    C   C63   0.000000  0.500000  0.605951  -0.028381
    C   C64   0.500000  0.000000  0.605951  -0.028357
    C   C65   0.460705  0.038792  0.770079  -0.142721
    C   C66   0.961208  0.460705  0.770079  -0.142718
    C   C67   0.539295  0.961208  0.770079  -0.142723
    C   C68   0.038792  0.539295  0.770079  -0.142725
    C   C69   0.461365  0.960551  0.234346  -0.133336
    C   C70   0.960551  0.538635  0.234346  -0.133333
    C   C71   0.538635  0.039449  0.234346  -0.133340
    C   C72   0.039449  0.461365  0.234346  -0.133337
    C   C73   0.960705  0.538792  0.270079  -0.142730
    C   C74   0.461208  0.960705  0.270079  -0.142724
    C   C75   0.039295  0.461208  0.270079  -0.142730
    C   C76   0.538792  0.039295  0.270079  -0.142733
    C   C77   0.961365  0.460551  0.734346  -0.133340
    C   C78   0.460551  0.038635  0.734346  -0.133344
    C   C79   0.038635  0.539449  0.734346  -0.133345
    C   C80   0.539449  0.961365  0.734346  -0.133342
    H   H33   0.430265  0.070540  0.783460  0.113140
    H   H34   0.929461  0.430265  0.783460  0.113136
    H   H35   0.569735  0.929461  0.783460  0.113137
    H   H36   0.070539  0.569735  0.783460  0.113143
    H   H37   0.431465  0.928297  0.220963  0.109182
    H   H38   0.928297  0.568535  0.220963  0.109182
    H   H39   0.568535  0.071703  0.220963  0.109185
    H   H40   0.071703  0.431465  0.220963  0.109184
    H   H41   0.930265  0.570540  0.283460  0.113144
    H   H42   0.429461  0.930265  0.283460  0.113139
    H   H43   0.069735  0.429461  0.283460  0.113141
    H   H44   0.570539  0.069735  0.283460  0.113145
    H   H45   0.931465  0.428297  0.720963  0.109184
    H   H46   0.428297  0.068535  0.720963  0.109184
    H   H47   0.068535  0.571703  0.720963  0.109188
    H   H48   0.571703  0.931465  0.720963  0.109186
    C   C81   0.500000  0.000000  0.716137  0.059679
    C   C82   0.000000  0.500000  0.716137  0.059682
    C   C83   0.500000  0.000000  0.288290  0.070653
    C   C84   0.000000  0.500000  0.288290  0.070647
    C   C85   0.000000  0.500000  0.216137  0.059676
    C   C86   0.500000  0.000000  0.216137  0.059682
    C   C87   0.000000  0.500000  0.788290  0.070638
    C   C88   0.500000  0.000000  0.788290  0.070648
    C   C89   0.717022  0.967923  0.477662  -0.221114
    C   C90   0.032077  0.717022  0.477662  -0.221120
    C   C91   0.282978  0.032077  0.477662  -0.221142
    C   C92   0.967923  0.282978  0.477662  -0.221178
    C   C93   0.716610  0.033820  0.527040  -0.220511
    C   C94   0.033820  0.283390  0.527040  -0.220546
    C   C95   0.283390  0.966180  0.527040  -0.220509
    C   C96   0.966180  0.716610  0.527040  -0.220492
    C   C97   0.217022  0.467923  0.977662  -0.221133
    C   C98   0.532077  0.217022  0.977662  -0.221140
    C   C99   0.782978  0.532077  0.977662  -0.221185
    C   C100  0.467923  0.782978  0.977662  -0.221190
    C   C101  0.216610  0.533820  0.027040  -0.220527
    C   C102  0.533820  0.783390  0.027040  -0.220550
    C   C103  0.783390  0.466180  0.027040  -0.220545
    C   C104  0.466180  0.216610  0.027040  -0.220532
    H   H49   0.692225  0.943113  0.457651  0.131167
    H   H50   0.056887  0.692225  0.457651  0.131156
    H   H51   0.307775  0.056887  0.457651  0.131177
    H   H52   0.943113  0.307775  0.457651  0.131182
    H   H53   0.691323  0.060587  0.546037  0.139951
    H   H54   0.060587  0.308677  0.546037  0.139969
    H   H55   0.308677  0.939413  0.546037  0.139950
    H   H56   0.939413  0.691323  0.546037  0.139943
    H   H57   0.192225  0.443113  0.957651  0.131154
    H   H58   0.556887  0.192225  0.957651  0.131164
    H   H59   0.807775  0.556887  0.957651  0.131193
    H   H60   0.443113  0.807775  0.957651  0.131188
    H   H61   0.191323  0.560587  0.046037  0.139950
    H   H62   0.560587  0.808677  0.046037  0.139974
    H   H63   0.808677  0.439413  0.046037  0.139965
    H   H64   0.439413  0.191323  0.046037  0.139949
    C   C105  0.780931  0.969122  0.476960  0.202057
    C   C106  0.030878  0.780931  0.476960  0.202065
    C   C107  0.219069  0.030878  0.476960  0.202080
    C   C108  0.969122  0.219069  0.476960  0.202097
    C   C109  0.780588  0.032680  0.528179  0.274378
    C   C110  0.032680  0.219412  0.528179  0.274353
    C   C111  0.219411  0.967320  0.528179  0.274362
    C   C112  0.967320  0.780589  0.528179  0.274342
    C   C113  0.280931  0.469122  0.976960  0.202000
    C   C114  0.530878  0.280931  0.976960  0.202054
    C   C115  0.719069  0.530878  0.976960  0.202090
    C   C116  0.469122  0.719069  0.976960  0.202031
    C   C117  0.280588  0.532680  0.028179  0.274321
    C   C118  0.532680  0.719412  0.028179  0.274279
    C   C119  0.719411  0.467320  0.028179  0.274371
    C   C120  0.467320  0.280589  0.028179  0.274382
    C   C121  0.813614  0.001379  0.502519  -0.163732
    C   C122  0.998621  0.813614  0.502519  -0.163719
    C   C123  0.186386  0.998621  0.502519  -0.163715
    C   C124  0.001379  0.186386  0.502519  -0.163725
    C   C125  0.313614  0.501379  0.002519  -0.163572
    C   C126  0.498621  0.313614  0.002519  -0.163728
    C   C127  0.686386  0.498621  0.002519  -0.163719
    C   C128  0.501379  0.686386  0.002519  -0.163563
    C   C129  0.684839  0.000417  0.502447  -0.048540
    C   C130  0.999583  0.684839  0.502447  -0.048518
    C   C131  0.315161  0.999583  0.502447  -0.048538
    C   C132  0.000417  0.315161  0.502447  -0.048435
    C   C133  0.184839  0.500417  0.002447  -0.048513
    C   C134  0.499583  0.184839  0.002447  -0.048489
    C   C135  0.815161  0.499583  0.002447  -0.048481
    C   C136  0.500417  0.815161  0.002447  -0.048456
    O   O33   0.018779  0.088236  0.474859  -0.456853
    O   O34   0.911764  0.018779  0.474859  -0.456884
    O   O35   0.981221  0.911764  0.474859  -0.456845
    O   O36   0.088236  0.981221  0.474859  -0.456885
    O   O37   0.014853  0.910919  0.531927  -0.443120
    O   O38   0.910919  0.985147  0.531927  -0.443120
    O   O39   0.985147  0.089081  0.531927  -0.443117
    O   O40   0.089081  0.014853  0.531927  -0.443112
    O   O41   0.518779  0.588236  0.974859  -0.456880
    O   O42   0.411764  0.518779  0.974859  -0.456797
    O   O43   0.481221  0.411764  0.974859  -0.456843
    O   O44   0.588236  0.481221  0.974859  -0.456892
    O   O45   0.514853  0.410919  0.031927  -0.443057
    O   O46   0.410919  0.485147  0.031927  -0.443024
    O   O47   0.485147  0.589081  0.031927  -0.442985
    O   O48   0.589081  0.514853  0.031927  -0.443021
    C   C137  0.001128  0.118011  0.503028  0.541277
    C   C138  0.881989  0.001128  0.503028  0.541325
    C   C139  0.998872  0.881989  0.503028  0.541276
    C   C140  0.118011  0.998872  0.503028  0.541273
    C   C141  0.501128  0.618011  0.003028  0.541034
    C   C142  0.381989  0.501128  0.003028  0.541085
    C   C143  0.498872  0.381989  0.003028  0.541335
    C   C144  0.618011  0.498872  0.003028  0.541269
    Cu  Cu9   0.000000  0.000000  0.469608  0.838178
    Cu  Cu10  0.000000  0.000000  0.537211  0.773715
    Cu  Cu11  0.500000  0.500000  0.969608  0.838049
    Cu  Cu12  0.500000  0.500000  0.037211  0.773726
    C   C145  0.811825  0.937299  0.448088  -0.139436
    C   C146  0.810153  0.873098  0.444165  0.355582
    C   C147  0.779034  0.830727  0.469435  -0.320442
    C   C148  0.837022  0.846394  0.415307  -0.358763
    C   C149  0.864220  0.882545  0.390127  0.013346
    C   C150  0.863206  0.946021  0.393140  -0.211264
    C   C151  0.835992  0.973107  0.421627  -0.096416
    H   H65   0.765150  0.854229  0.493693  0.071216
    H   H66   0.811266  0.792539  0.476181  0.065516
    H   H67   0.737302  0.810461  0.457065  0.088969
    H   H68   0.836490  0.796582  0.412299  0.148090
    H   H69   0.885291  0.861092  0.367711  0.079203
    H   H70   0.883102  0.974641  0.373006  0.122800
    H   H71   0.833571  0.023017  0.423313  0.119008
    C   C152  0.062701  0.811825  0.448088  -0.139427
    C   C153  0.126902  0.810153  0.444165  0.355609
    C   C154  0.169273  0.779034  0.469435  -0.320450
    C   C155  0.153606  0.837022  0.415307  -0.358848
    C   C156  0.117455  0.864220  0.390127  0.013408
    C   C157  0.053979  0.863206  0.393140  -0.211313
    C   C158  0.026893  0.835992  0.421627  -0.096384
    H   H72   0.145771  0.765150  0.493693  0.071220
    H   H73   0.207461  0.811266  0.476181  0.065509
    H   H74   0.189539  0.737302  0.457065  0.088969
    H   H75   0.203418  0.836490  0.412299  0.148133
    H   H76   0.138908  0.885291  0.367711  0.079187
    H   H77   0.025359  0.883102  0.373006  0.122815
    H   H78   0.976983  0.833571  0.423313  0.118998
    C   C159  0.188175  0.062701  0.448088  -0.139456
    C   C160  0.189847  0.126902  0.444165  0.355591
    C   C161  0.220966  0.169273  0.469435  -0.320461
    C   C162  0.162978  0.153606  0.415307  -0.358770
    C   C163  0.135780  0.117455  0.390127  0.013354
    C   C164  0.136794  0.053979  0.393140  -0.211280
    C   C165  0.164008  0.026893  0.421627  -0.096390
    H   H79   0.234850  0.145771  0.493693  0.071228
    H   H80   0.188734  0.207461  0.476181  0.065519
    H   H81   0.262698  0.189539  0.457065  0.088977
    H   H82   0.163510  0.203418  0.412299  0.148092
    H   H83   0.114709  0.138908  0.367711  0.079201
    H   H84   0.116898  0.025359  0.373006  0.122809
    H   H85   0.166429  0.976983  0.423313  0.118993
    C   C166  0.937299  0.188175  0.448088  -0.139322
    C   C167  0.873098  0.189847  0.444165  0.355461
    C   C168  0.830727  0.220966  0.469435  -0.320421
    C   C169  0.846394  0.162978  0.415307  -0.358629
    C   C170  0.882545  0.135780  0.390127  0.013152
    C   C171  0.946021  0.136794  0.393140  -0.211030
    C   C172  0.973107  0.164008  0.421627  -0.096583
    H   H86   0.854229  0.234850  0.493693  0.071217
    H   H87   0.792539  0.188734  0.476181  0.065511
    H   H88   0.810461  0.262698  0.457065  0.088970
    H   H89   0.796582  0.163510  0.412299  0.148071
    H   H90   0.861092  0.114709  0.367711  0.079238
    H   H91   0.974641  0.116898  0.373006  0.122753
    H   H92   0.023017  0.166429  0.423313  0.119028
    C   C173  0.811484  0.071964  0.554043  -0.310927
    C   C174  0.800365  0.066354  0.589523  0.374637
    C   C175  0.763495  0.014738  0.605102  -0.352699
    C   C176  0.824816  0.109709  0.612021  -0.312128
    C   C177  0.859402  0.158614  0.599779  -0.013552
    C   C178  0.870413  0.164146  0.564832  -0.289755
    C   C179  0.846810  0.120904  0.542234  0.116892
    H   H93   0.751190  0.978325  0.586220  0.092297
    H   H94   0.720418  0.033927  0.616544  0.072616
    H   H95   0.791237  0.992947  0.626001  0.101444
    H   H96   0.816317  0.105580  0.639544  0.133048
    H   H97   0.877507  0.192740  0.617603  0.090844
    H   H98   0.896825  0.202782  0.554947  0.148407
    H   H99   0.855115  0.126094  0.514860  0.052817
    C   C180  0.071964  0.188516  0.554043  -0.310907
    C   C181  0.066354  0.199635  0.589523  0.374617
    C   C182  0.014738  0.236505  0.605102  -0.352692
    C   C183  0.109709  0.175184  0.612021  -0.312119
    C   C184  0.158614  0.140598  0.599779  -0.013550
    C   C185  0.164146  0.129587  0.564832  -0.289766
    C   C186  0.120904  0.153190  0.542234  0.116896
    H   H100  0.978325  0.248810  0.586220  0.092302
    H   H101  0.033927  0.279582  0.616544  0.072614
    H   H102  0.992947  0.208763  0.626001  0.101442
    H   H103  0.105580  0.183683  0.639544  0.133046
    H   H104  0.192740  0.122493  0.617604  0.090843
    H   H105  0.202781  0.103175  0.554947  0.148415
    H   H106  0.126094  0.144885  0.514860  0.052819
    C   C187  0.188516  0.928036  0.554043  -0.310928
    C   C188  0.199635  0.933646  0.589523  0.374634
    C   C189  0.236505  0.985262  0.605102  -0.352701
    C   C190  0.175184  0.890291  0.612021  -0.312135
    C   C191  0.140598  0.841386  0.599779  -0.013539
    C   C192  0.129587  0.835854  0.564832  -0.289766
    C   C193  0.153190  0.879096  0.542234  0.116905
    H   H107  0.248810  0.021675  0.586220  0.092302
    H   H108  0.279582  0.966073  0.616544  0.072620
    H   H109  0.208763  0.007053  0.626001  0.101444
    H   H110  0.183683  0.894420  0.639544  0.133051
    H   H111  0.122493  0.807260  0.617603  0.090842
    H   H112  0.103175  0.797219  0.554947  0.148412
    H   H113  0.144885  0.873906  0.514860  0.052814
    C   C194  0.928036  0.811484  0.554043  -0.310906
    C   C195  0.933646  0.800365  0.589523  0.374627
    C   C196  0.985262  0.763495  0.605102  -0.352686
    C   C197  0.890291  0.824816  0.612021  -0.312125
    C   C198  0.841386  0.859402  0.599779  -0.013546
    C   C199  0.835854  0.870413  0.564832  -0.289756
    C   C200  0.879096  0.846810  0.542234  0.116888
    H   H114  0.021675  0.751190  0.586220  0.092298
    H   H115  0.966073  0.720418  0.616544  0.072614
    H   H116  0.007053  0.791237  0.626001  0.101439
    H   H117  0.894420  0.816317  0.639544  0.133047
    H   H118  0.807260  0.877507  0.617604  0.090842
    H   H119  0.797218  0.896826  0.554947  0.148409
    H   H120  0.873906  0.855115  0.514860  0.052823
    C   C201  0.311825  0.437299  0.948088  -0.139322
    C   C202  0.310153  0.373098  0.944165  0.355612
    C   C203  0.279034  0.330727  0.969435  -0.320454
    C   C204  0.337022  0.346394  0.915307  -0.358873
    C   C205  0.364220  0.382545  0.890127  0.013373
    C   C206  0.363206  0.446021  0.893140  -0.211254
    C   C207  0.335992  0.473107  0.921627  -0.096481
    H   H121  0.265150  0.354229  0.993693  0.071224
    H   H122  0.311266  0.292539  0.976181  0.065513
    H   H123  0.237302  0.310461  0.957065  0.088962
    H   H124  0.336490  0.296582  0.912299  0.148142
    H   H125  0.385291  0.361092  0.867711  0.079192
    H   H126  0.383102  0.474641  0.873006  0.122796
    H   H127  0.333571  0.523017  0.923313  0.119020
    C   C208  0.562701  0.311825  0.948088  -0.139428
    C   C209  0.626902  0.310153  0.944165  0.355638
    C   C210  0.669273  0.279034  0.969435  -0.320482
    C   C211  0.653606  0.337022  0.915307  -0.358858
    C   C212  0.617455  0.364220  0.890127  0.013382
    C   C213  0.553979  0.363206  0.893140  -0.211280
    C   C214  0.526893  0.335992  0.921627  -0.096426
    H   H128  0.645771  0.265150  0.993693  0.071237
    H   H129  0.707461  0.311266  0.976181  0.065512
    H   H130  0.689539  0.237302  0.957065  0.088971
    H   H131  0.703418  0.336490  0.912299  0.148137
    H   H132  0.638908  0.385291  0.867711  0.079190
    H   H133  0.525359  0.383102  0.873006  0.122807
    H   H134  0.476983  0.333571  0.923313  0.119014
    C   C215  0.688175  0.562701  0.948088  -0.139342
    C   C216  0.689847  0.626902  0.944165  0.355507
    C   C217  0.720966  0.669273  0.969435  -0.320476
    C   C218  0.662978  0.653606  0.915307  -0.358717
    C   C219  0.635780  0.617455  0.890127  0.013202
    C   C220  0.636794  0.553979  0.893140  -0.211055
    C   C221  0.664008  0.526893  0.921627  -0.096568
    H   H135  0.734850  0.645771  0.993693  0.071246
    H   H136  0.688734  0.707461  0.976181  0.065510
    H   H137  0.762698  0.689539  0.957065  0.088984
    H   H138  0.663510  0.703418  0.912299  0.148120
    H   H139  0.614709  0.638908  0.867711  0.079226
    H   H140  0.616898  0.525359  0.873006  0.122757
    H   H141  0.666429  0.476983  0.923313  0.119039
    C   C222  0.437299  0.688175  0.948088  -0.139235
    C   C223  0.373098  0.689847  0.944165  0.355462
    C   C224  0.330727  0.720966  0.969435  -0.320430
    C   C225  0.346394  0.662978  0.915307  -0.358657
    C   C226  0.382545  0.635780  0.890127  0.013127
    C   C227  0.446021  0.636794  0.893140  -0.210996
    C   C228  0.473107  0.664008  0.921627  -0.096633
    H   H142  0.354229  0.734850  0.993693  0.071225
    H   H143  0.292539  0.688734  0.976181  0.065512
    H   H144  0.310461  0.762698  0.957065  0.088972
    H   H145  0.296582  0.663510  0.912299  0.148083
    H   H146  0.361092  0.614709  0.867711  0.079246
    H   H147  0.474641  0.616898  0.873006  0.122740
    H   H148  0.523017  0.666429  0.923313  0.119041
    C   C229  0.311484  0.571964  0.054043  -0.310859
    C   C230  0.300365  0.566354  0.089523  0.374607
    C   C231  0.263495  0.514738  0.105102  -0.352678
    C   C232  0.324816  0.609709  0.112021  -0.312142
    C   C233  0.359402  0.658614  0.099779  -0.013548
    C   C234  0.370413  0.664146  0.064832  -0.289771
    C   C235  0.346810  0.620904  0.042234  0.116882
    H   H149  0.251190  0.478325  0.086220  0.092297
    H   H150  0.220418  0.533927  0.116544  0.072603
    H   H151  0.291237  0.492947  0.126001  0.101447
    H   H152  0.316317  0.605580  0.139544  0.133050
    H   H153  0.377507  0.692740  0.117603  0.090845
    H   H154  0.396825  0.702782  0.054947  0.148417
    H   H155  0.355115  0.626094  0.014860  0.052826
    C   C236  0.571964  0.688516  0.054043  -0.310867
    C   C237  0.566354  0.699635  0.089523  0.374656
    C   C238  0.514738  0.736505  0.105102  -0.352732
    C   C239  0.609709  0.675184  0.112021  -0.312229
    C   C240  0.658614  0.640598  0.099779  -0.013496
    C   C241  0.664146  0.629587  0.064832  -0.289815
    C   C242  0.620904  0.653190  0.042234  0.116906
    H   H156  0.478325  0.748810  0.086220  0.092324
    H   H157  0.533927  0.779582  0.116544  0.072616
    H   H158  0.492947  0.708763  0.126001  0.101450
    H   H159  0.605580  0.683683  0.139544  0.133097
    H   H160  0.692740  0.622493  0.117604  0.090826
    H   H161  0.702781  0.603175  0.054947  0.148414
    H   H162  0.626094  0.644885  0.014860  0.052841
    C   C243  0.688516  0.428036  0.054043  -0.310931
    C   C244  0.699635  0.433646  0.089523  0.374625
    C   C245  0.736505  0.485262  0.105102  -0.352707
    C   C246  0.675184  0.390291  0.112021  -0.312137
    C   C247  0.640598  0.341386  0.099779  -0.013528
    C   C248  0.629587  0.335854  0.064832  -0.289797
    C   C249  0.653190  0.379096  0.042234  0.116906
    H   H163  0.748810  0.521675  0.086220  0.092314
    H   H164  0.779582  0.466073  0.116544  0.072613
    H   H165  0.708763  0.507053  0.126001  0.101452
    H   H166  0.683683  0.394420  0.139544  0.133048
    H   H167  0.622493  0.307260  0.117603  0.090835
    H   H168  0.603175  0.297219  0.054947  0.148416
    H   H169  0.644885  0.373906  0.014860  0.052835
    C   C250  0.428036  0.311484  0.054043  -0.310916
    C   C251  0.433646  0.300365  0.089523  0.374611
    C   C252  0.485262  0.263495  0.105102  -0.352679
    C   C253  0.390291  0.324816  0.112021  -0.312121
    C   C254  0.341386  0.359402  0.099779  -0.013560
    C   C255  0.335854  0.370413  0.064832  -0.289755
    C   C256  0.379096  0.346810  0.042234  0.116899
    H   H170  0.521675  0.251190  0.086220  0.092306
    H   H171  0.466073  0.220418  0.116544  0.072600
    H   H172  0.507053  0.291237  0.126001  0.101447
    H   H173  0.394420  0.316317  0.139544  0.133046
    H   H174  0.307260  0.377507  0.117604  0.090842
    H   H175  0.297218  0.396826  0.054947  0.148413
    H   H176  0.373906  0.355115  0.014860  0.052810
