# Generated by REPEAT Assigner based on pymatgen
data_DB0-m2_o1_o3_f0_nbo.sym.5
_audit_creation_date              2022-05-24
_audit_creation_method            REPEAT_Assigner
_cell_length_a                    21.514913
_cell_length_b                    21.514913
_cell_length_c                    38.576344
_cell_angle_alpha                 90.000000
_cell_angle_beta                  90.000000
_cell_angle_gamma                 90.000000
_cell_volume                      17856.661021
_symmetry_space_group_name_H-M    P1
_symmetry_Int_Tables_number       1
loop_
    _symmetry_equiv_pos_site_id
    _symmetry_equiv_pos_as_xyz
    1  x,y,z
loop_
    _atom_site_type_symbol
    _atom_site_label
    _atom_site_fract_x
    _atom_site_fract_y
    _atom_site_fract_z
    _atom_type_partial_charge
    O   O1    0.588562  0.051194  0.509688  -0.556337
    O   O2    0.948806  0.588562  0.509688  -0.556351
    O   O3    0.411438  0.948806  0.509688  -0.556348
    O   O4    0.051194  0.411438  0.509688  -0.556334
    O   O5    0.588562  0.948806  0.490312  -0.556348
    O   O6    0.948806  0.411438  0.490312  -0.556347
    O   O7    0.411438  0.051194  0.490312  -0.556336
    O   O8    0.051194  0.588562  0.490312  -0.556342
    O   O9    0.088562  0.551194  0.009688  -0.556318
    O   O10   0.448806  0.088562  0.009688  -0.556354
    O   O11   0.911438  0.448806  0.009688  -0.556334
    O   O12   0.551194  0.911438  0.009688  -0.556372
    O   O13   0.088562  0.448806  0.990312  -0.556318
    O   O14   0.448806  0.911438  0.990312  -0.556354
    O   O15   0.911438  0.551194  0.990312  -0.556322
    O   O16   0.551194  0.088562  0.990312  -0.556401
    C   C1    0.617732  0.000000  0.500000  0.680644
    C   C2    0.000000  0.617732  0.500000  0.680652
    C   C3    0.382268  0.000000  0.500000  0.680647
    C   C4    0.000000  0.382268  0.500000  0.680638
    C   C5    0.117732  0.500000  0.000000  0.680522
    C   C6    0.500000  0.117732  0.000000  0.680709
    C   C7    0.882268  0.500000  0.000000  0.680524
    C   C8    0.500000  0.882268  0.000000  0.680622
    O   O17   0.482711  0.051216  0.549507  -0.598558
    O   O18   0.948784  0.482711  0.549507  -0.598558
    O   O19   0.517289  0.948784  0.549507  -0.598556
    O   O20   0.051216  0.517289  0.549507  -0.598557
    O   O21   0.482711  0.948784  0.450493  -0.598584
    O   O22   0.948784  0.517289  0.450493  -0.598593
    O   O23   0.517289  0.051216  0.450493  -0.598569
    O   O24   0.051216  0.482711  0.450493  -0.598585
    O   O25   0.982711  0.551216  0.049507  -0.598512
    O   O26   0.448784  0.982711  0.049507  -0.598580
    O   O27   0.017289  0.448783  0.049507  -0.598461
    O   O28   0.551216  0.017289  0.049507  -0.598562
    O   O29   0.982711  0.448783  0.950493  -0.598474
    O   O30   0.448784  0.017289  0.950493  -0.598592
    O   O31   0.017289  0.551216  0.950493  -0.598501
    O   O32   0.551216  0.982711  0.950493  -0.598585
    C   C9    0.500000  0.000000  0.565789  0.674248
    C   C10   0.000000  0.500000  0.565789  0.674247
    C   C11   0.500000  0.000000  0.434211  0.674313
    C   C12   0.000000  0.500000  0.434211  0.674372
    C   C13   0.000000  0.500000  0.065789  0.674099
    C   C14   0.500000  0.000000  0.065789  0.674278
    C   C15   0.000000  0.500000  0.934211  0.674217
    C   C16   0.500000  0.000000  0.934211  0.674441
    Cu  Cu1   0.500000  0.060697  0.500000  0.936704
    Cu  Cu2   0.939303  0.500000  0.500000  0.936720
    Cu  Cu3   0.500000  0.939303  0.500000  0.936719
    Cu  Cu4   0.060697  0.500000  0.500000  0.936707
    Cu  Cu5   0.000000  0.560697  0.000000  0.936647
    Cu  Cu6   0.439303  0.000000  0.000000  0.936719
    Cu  Cu7   0.000000  0.439303  0.000000  0.936741
    Cu  Cu8   0.560697  0.000000  0.000000  0.936746
    C   C17   0.554733  0.991357  0.878146  -0.088639
    C   C18   0.008643  0.554733  0.878146  -0.088743
    C   C19   0.445267  0.008643  0.878146  -0.088722
    C   C20   0.991357  0.445267  0.878146  -0.088716
    C   C21   0.554733  0.008643  0.121854  -0.088794
    C   C22   0.008643  0.445267  0.121854  -0.088858
    C   C23   0.445267  0.991357  0.121854  -0.088720
    C   C24   0.991357  0.554733  0.121854  -0.088738
    C   C25   0.054733  0.491357  0.378146  -0.088824
    C   C26   0.508643  0.054733  0.378146  -0.088879
    C   C27   0.945267  0.508643  0.378146  -0.088819
    C   C28   0.491357  0.945267  0.378146  -0.088834
    C   C29   0.054733  0.508643  0.621854  -0.088877
    C   C30   0.508643  0.945267  0.621854  -0.088873
    C   C31   0.945267  0.491357  0.621854  -0.088873
    C   C32   0.491357  0.054733  0.621854  -0.088879
    H   H1    0.598301  0.985153  0.891634  0.119660
    H   H2    0.014847  0.598301  0.891634  0.119661
    H   H3    0.401699  0.014847  0.891634  0.119674
    H   H4    0.985153  0.401699  0.891634  0.119700
    H   H5    0.598301  0.014847  0.108366  0.119685
    H   H6    0.014847  0.401699  0.108366  0.119724
    H   H7    0.401699  0.985153  0.108366  0.119688
    H   H8    0.985153  0.598301  0.108366  0.119678
    H   H9    0.098301  0.485153  0.391634  0.119693
    H   H10   0.514847  0.098301  0.391634  0.119705
    H   H11   0.901699  0.514847  0.391634  0.119691
    H   H12   0.485153  0.901699  0.391634  0.119690
    H   H13   0.098301  0.514847  0.608366  0.119703
    H   H14   0.514847  0.901699  0.608366  0.119694
    H   H15   0.901699  0.485153  0.608366  0.119695
    H   H16   0.485153  0.098301  0.608366  0.119705
    C   C33   0.554780  0.991679  0.842418  -0.154733
    C   C34   0.008321  0.554780  0.842418  -0.154542
    C   C35   0.445219  0.008321  0.842418  -0.154545
    C   C36   0.991679  0.445219  0.842418  -0.154696
    C   C37   0.554780  0.008321  0.157582  -0.154602
    C   C38   0.008321  0.445219  0.157582  -0.154579
    C   C39   0.445219  0.991679  0.157582  -0.154772
    C   C40   0.991679  0.554780  0.157582  -0.154779
    C   C41   0.054781  0.491679  0.342418  -0.154433
    C   C42   0.508321  0.054781  0.342418  -0.154434
    C   C43   0.945219  0.508321  0.342418  -0.154437
    C   C44   0.491679  0.945220  0.342418  -0.154512
    C   C45   0.054781  0.508321  0.657582  -0.154503
    C   C46   0.508321  0.945220  0.657582  -0.154519
    C   C47   0.945220  0.491679  0.657582  -0.154522
    C   C48   0.491679  0.054781  0.657582  -0.154504
    H   H17   0.598579  0.986664  0.829023  0.111641
    H   H18   0.013336  0.598579  0.829023  0.111578
    H   H19   0.401421  0.013336  0.829023  0.111613
    H   H20   0.986664  0.401421  0.829023  0.111671
    H   H21   0.598579  0.013336  0.170977  0.111569
    H   H22   0.013336  0.401421  0.170977  0.111605
    H   H23   0.401421  0.986664  0.170977  0.111671
    H   H24   0.986664  0.598579  0.170977  0.111636
    H   H25   0.098579  0.486664  0.329023  0.111603
    H   H26   0.513336  0.098579  0.329023  0.111579
    H   H27   0.901421  0.513336  0.329023  0.111604
    H   H28   0.486664  0.901421  0.329023  0.111584
    H   H29   0.098579  0.513336  0.670977  0.111600
    H   H30   0.513336  0.901421  0.670977  0.111567
    H   H31   0.901421  0.486664  0.670977  0.111567
    H   H32   0.486664  0.098579  0.670977  0.111600
    C   C49   0.500000  0.000000  0.824223  0.093807
    C   C50   0.000000  0.500000  0.824223  0.093785
    C   C51   0.500000  0.000000  0.175777  0.093908
    C   C52   0.000000  0.500000  0.175777  0.093912
    C   C53   0.000000  0.500000  0.324223  0.093556
    C   C54   0.500000  0.000000  0.324223  0.093688
    C   C55   0.000000  0.500000  0.675777  0.093754
    C   C56   0.500000  0.000000  0.675777  0.093753
    C   C57   0.500000  0.000000  0.896224  -0.035364
    C   C58   0.000000  0.500000  0.896224  -0.035253
    C   C59   0.500000  0.000000  0.103776  -0.035160
    C   C60   0.000000  0.500000  0.103776  -0.035075
    C   C61   0.000000  0.500000  0.396224  -0.035244
    C   C62   0.500000  0.000000  0.396224  -0.035145
    C   C63   0.000000  0.500000  0.603776  -0.035070
    C   C64   0.500000  0.000000  0.603776  -0.035070
    C   C65   0.460921  0.039218  0.767863  -0.141117
    C   C66   0.960782  0.460921  0.767863  -0.141140
    C   C67   0.539079  0.960782  0.767863  -0.141119
    C   C68   0.039218  0.539079  0.767863  -0.141103
    C   C69   0.460921  0.960782  0.232137  -0.141118
    C   C70   0.960782  0.539079  0.232137  -0.141079
    C   C71   0.539079  0.039218  0.232137  -0.141084
    C   C72   0.039218  0.460921  0.232137  -0.141093
    C   C73   0.960921  0.539218  0.267863  -0.141105
    C   C74   0.460782  0.960921  0.267863  -0.141071
    C   C75   0.039079  0.460782  0.267863  -0.141082
    C   C76   0.539218  0.039079  0.267863  -0.141084
    C   C77   0.960921  0.460782  0.732137  -0.141038
    C   C78   0.460782  0.039079  0.732137  -0.141049
    C   C79   0.039079  0.539218  0.732137  -0.141060
    C   C80   0.539218  0.960921  0.732137  -0.141052
    H   H33   0.430660  0.071287  0.781247  0.113946
    H   H34   0.928713  0.430660  0.781247  0.113956
    H   H35   0.569340  0.928713  0.781247  0.113958
    H   H36   0.071287  0.569340  0.781247  0.113950
    H   H37   0.430660  0.928713  0.218753  0.113963
    H   H38   0.928713  0.569340  0.218753  0.113966
    H   H39   0.569340  0.071287  0.218753  0.113956
    H   H40   0.071287  0.430660  0.218753  0.113952
    H   H41   0.930660  0.571287  0.281247  0.113939
    H   H42   0.428713  0.930660  0.281247  0.113943
    H   H43   0.069340  0.428713  0.281247  0.113938
    H   H44   0.571287  0.069340  0.281247  0.113942
    H   H45   0.930660  0.428713  0.718753  0.113946
    H   H46   0.428713  0.069340  0.718753  0.113940
    H   H47   0.069340  0.571287  0.718753  0.113940
    H   H48   0.571287  0.930660  0.718753  0.113945
    C   C81   0.500000  0.000000  0.713935  0.076276
    C   C82   0.000000  0.500000  0.713935  0.076275
    C   C83   0.500000  0.000000  0.286065  0.076313
    C   C84   0.000000  0.500000  0.286065  0.076365
    C   C85   0.000000  0.500000  0.213935  0.076278
    C   C86   0.500000  0.000000  0.213935  0.076300
    C   C87   0.000000  0.500000  0.786065  0.076338
    C   C88   0.500000  0.000000  0.786065  0.076329
    C   C89   0.718141  0.953932  0.482721  0.001128
    C   C90   0.046068  0.718141  0.482721  0.001124
    C   C91   0.281859  0.046068  0.482721  0.001121
    C   C92   0.953932  0.281859  0.482721  0.001127
    C   C93   0.718141  0.046068  0.517279  0.001125
    C   C94   0.046068  0.281859  0.517279  0.001126
    C   C95   0.281859  0.953932  0.517279  0.001132
    C   C96   0.953932  0.718141  0.517279  0.001131
    C   C97   0.218141  0.453932  0.982721  0.001104
    C   C98   0.546068  0.218141  0.982721  0.001243
    C   C99   0.781859  0.546068  0.982721  0.001100
    C   C100  0.453932  0.781859  0.982721  0.001143
    C   C101  0.218141  0.546068  0.017279  0.001094
    C   C102  0.546068  0.781859  0.017279  0.001154
    C   C103  0.781859  0.453932  0.017279  0.001126
    C   C104  0.453932  0.218141  0.017279  0.001159
    H   H49   0.693856  0.917632  0.468895  0.095323
    H   H50   0.082368  0.693856  0.468895  0.095324
    H   H51   0.306144  0.082368  0.468895  0.095325
    H   H52   0.917632  0.306144  0.468895  0.095323
    H   H53   0.693856  0.082368  0.531105  0.095325
    H   H54   0.082368  0.306144  0.531105  0.095323
    H   H55   0.306144  0.917632  0.531105  0.095322
    H   H56   0.917632  0.693856  0.531105  0.095324
    H   H57   0.193856  0.417632  0.968895  0.095334
    H   H58   0.582368  0.193856  0.968895  0.095285
    H   H59   0.806144  0.582368  0.968895  0.095331
    H   H60   0.417632  0.806143  0.968895  0.095318
    H   H61   0.193856  0.582368  0.031105  0.095334
    H   H62   0.582368  0.806143  0.031105  0.095319
    H   H63   0.806143  0.417632  0.031105  0.095325
    H   H64   0.417632  0.193856  0.031105  0.095321
    C   C105  0.782200  0.954375  0.482406  -0.108635
    C   C106  0.045625  0.782200  0.482406  -0.108632
    C   C107  0.217800  0.045625  0.482406  -0.108625
    C   C108  0.954375  0.217800  0.482406  -0.108631
    C   C109  0.782200  0.045625  0.517594  -0.108633
    C   C110  0.045625  0.217800  0.517594  -0.108628
    C   C111  0.217800  0.954375  0.517594  -0.108633
    C   C112  0.954375  0.782200  0.517594  -0.108639
    C   C113  0.282200  0.454375  0.982406  -0.108632
    C   C114  0.545625  0.282200  0.982406  -0.108672
    C   C115  0.717800  0.545625  0.982406  -0.108624
    C   C116  0.454375  0.717800  0.982406  -0.108628
    C   C117  0.282200  0.545625  0.017594  -0.108633
    C   C118  0.545625  0.717800  0.017594  -0.108641
    C   C119  0.717800  0.454375  0.017594  -0.108632
    C   C120  0.454375  0.282200  0.017594  -0.108641
    C   C121  0.814292  0.000000  0.500000  0.225867
    C   C122  0.000000  0.814292  0.500000  0.225868
    C   C123  0.185708  0.000000  0.500000  0.225850
    C   C124  0.000000  0.185708  0.500000  0.225849
    C   C125  0.314292  0.500000  0.000000  0.225867
    C   C126  0.500000  0.314292  0.000000  0.225869
    C   C127  0.685708  0.500000  0.000000  0.225852
    C   C128  0.500000  0.685708  0.000000  0.225859
    C   C129  0.685794  0.000000  0.500000  -0.135027
    C   C130  0.000000  0.685794  0.500000  -0.135031
    C   C131  0.314206  0.000000  0.500000  -0.135031
    C   C132  0.000000  0.314206  0.500000  -0.135026
    C   C133  0.185794  0.500000  0.000000  -0.134948
    C   C134  0.500000  0.185794  0.000000  -0.135126
    C   C135  0.814206  0.500000  0.000000  -0.134962
    C   C136  0.500000  0.814206  0.000000  -0.135037
    O   O33   0.016569  0.088957  0.471318  -0.601748
    O   O34   0.911043  0.016569  0.471318  -0.601750
    O   O35   0.983431  0.911043  0.471318  -0.601753
    O   O36   0.088957  0.983431  0.471318  -0.601750
    O   O37   0.016569  0.911043  0.528682  -0.601755
    O   O38   0.911043  0.983431  0.528682  -0.601758
    O   O39   0.983431  0.088957  0.528682  -0.601756
    O   O40   0.088957  0.016569  0.528682  -0.601753
    O   O41   0.516569  0.588957  0.971318  -0.601712
    O   O42   0.411043  0.516569  0.971318  -0.601707
    O   O43   0.483431  0.411043  0.971318  -0.601705
    O   O44   0.588957  0.483431  0.971318  -0.601715
    O   O45   0.516569  0.411043  0.028682  -0.601735
    O   O46   0.411043  0.483431  0.028682  -0.601734
    O   O47   0.483431  0.588957  0.028682  -0.601739
    O   O48   0.588957  0.516569  0.028682  -0.601741
    C   C137  0.000000  0.117958  0.500000  0.702270
    C   C138  0.882042  0.000000  0.500000  0.702250
    C   C139  0.000000  0.882042  0.500000  0.702251
    C   C140  0.117958  0.000000  0.500000  0.702269
    C   C141  0.500000  0.617958  0.000000  0.702218
    C   C142  0.382042  0.500000  0.000000  0.702207
    C   C143  0.500000  0.382042  0.000000  0.702211
    C   C144  0.617958  0.500000  0.000000  0.702226
    Cu  Cu9   0.000000  0.000000  0.466100  0.975157
    Cu  Cu10  0.000000  0.000000  0.533900  0.975171
    Cu  Cu11  0.500000  0.500000  0.966100  0.975103
    Cu  Cu12  0.500000  0.500000  0.033900  0.975143
    Cl  Cl1   0.822538  0.895745  0.460359  -0.045560
    Cl  Cl2   0.104255  0.822538  0.460359  -0.045558
    Cl  Cl3   0.177462  0.104255  0.460359  -0.045559
    Cl  Cl4   0.895745  0.177462  0.460359  -0.045559
    Cl  Cl5   0.822538  0.104255  0.539641  -0.045557
    Cl  Cl6   0.104255  0.177462  0.539641  -0.045558
    Cl  Cl7   0.177462  0.895745  0.539641  -0.045558
    Cl  Cl8   0.895745  0.822538  0.539641  -0.045557
    Cl  Cl9   0.322538  0.395745  0.960359  -0.045557
    Cl  Cl10  0.604255  0.322538  0.960359  -0.045549
    Cl  Cl11  0.677462  0.604255  0.960359  -0.045556
    Cl  Cl12  0.395745  0.677462  0.960359  -0.045553
    Cl  Cl13  0.322538  0.604255  0.039641  -0.045555
    Cl  Cl14  0.604255  0.677462  0.039641  -0.045551
    Cl  Cl15  0.677462  0.395745  0.039641  -0.045553
    Cl  Cl16  0.395745  0.322538  0.039641  -0.045559
