# Generated by REPEAT Assigner based on pymatgen
data_DB0-m2_o1_o2_f0_pcu.sym.6_sqe
_audit_creation_date              2022-05-24
_audit_creation_method            REPEAT_Assigner
_cell_length_a                    10.914027
_cell_length_b                    9.398681
_cell_length_c                    15.158399
_cell_angle_alpha                 90.000000
_cell_angle_beta                  90.005977
_cell_angle_gamma                 90.000000
_cell_volume                      1554.910022
_symmetry_space_group_name_H-M    P1
_symmetry_Int_Tables_number       1
loop_
    _symmetry_equiv_pos_site_id
    _symmetry_equiv_pos_as_xyz
    1  x,y,z
loop_
    _atom_site_type_symbol
    _atom_site_label
    _atom_site_fract_x
    _atom_site_fract_y
    _atom_site_fract_z
    _atom_type_partial_charge
    O   O1   0.322219  0.622434  0.497181  -0.575570
    O   O2   0.677872  0.377021  0.502970  -0.488339
    O   O3   0.678300  0.620826  0.497305  -0.489057
    O   O4   0.321751  0.378801  0.503155  -0.592623
    N   N1   0.500686  0.854574  0.500579  0.026435
    N   N2   0.499530  0.144845  0.499691  0.059489
    C   C1   0.263732  0.500711  0.500054  0.984655
    C   C2   0.736298  0.498932  0.499882  0.757592
    O   O5   0.496165  0.622434  0.372088  -0.577049
    O   O6   0.504145  0.377043  0.628274  -0.588522
    O   O7   0.495962  0.620830  0.628475  -0.631013
    O   O8   0.503948  0.378588  0.371871  -0.614275
    C   C3   0.500262  0.500635  0.330121  0.830701
    C   C4   0.500207  0.498888  0.670251  0.873682
    Cu  Cu1  0.500578  0.641759  0.500291  0.668036
    Cu  Cu2  0.499239  0.357649  0.500052  0.664135
    H   H1   0.364739  0.128561  0.400324  0.121318
    H   H2   0.637114  0.871365  0.598487  0.096653
    H   H3   0.636065  0.131380  0.597250  0.186134
    H   H4   0.367269  0.867037  0.400439  0.138558
    C   C5   0.425766  0.072147  0.444339  -0.001089
    C   C6   0.576575  0.927256  0.554033  0.057353
    C   C7   0.575818  0.073870  0.553479  -0.134336
    C   C8   0.426966  0.925327  0.444546  -0.054066
    C   C9   0.063411  0.380829  0.526649  0.309434
    C   C10  0.936538  0.619325  0.473474  0.333638
    C   C11  0.937013  0.380598  0.526977  0.310731
    C   C12  0.062977  0.620157  0.473987  0.276936
    C   C13  0.533236  0.620955  0.094867  -0.578634
    C   C14  0.538896  0.381207  0.905615  -0.588750
    C   C15  0.460896  0.617556  0.905498  -0.593604
    C   C16  0.466773  0.379891  0.095030  -0.567223
    H   H5   0.562294  0.715572  0.060210  0.169622
    H   H6   0.572054  0.288272  0.940127  0.172556
    H   H7   0.426263  0.709786  0.940016  0.179258
    H   H8   0.436395  0.285657  0.060595  0.173569
    C   C17  0.533345  0.621846  0.185868  0.619165
    C   C18  0.539231  0.380432  0.814614  0.650608
    C   C19  0.460981  0.618068  0.814498  0.655317
    C   C20  0.466768  0.379450  0.185982  0.611106
    C   C21  0.500140  0.500712  0.232661  -0.561957
    C   C22  0.500080  0.499066  0.767749  -0.613783
    C   C23  0.500191  0.500165  0.048788  0.353528
    C   C24  0.500068  0.499634  0.951765  0.359515
    C   C25  0.871825  0.499501  0.499979  -0.477000
    C   C26  0.128203  0.500704  0.500295  -0.530217
    O   O9   0.570330  0.742540  0.228541  -0.504665
    H   H9   0.497194  0.804882  0.228283  0.327996
    O   O10  0.581700  0.262109  0.772083  -0.538882
    H   H10  0.512814  0.193720  0.774960  0.345598
    O   O11  0.418002  0.736108  0.771902  -0.513479
    H   H11  0.486672  0.804860  0.774492  0.326952
    O   O12  0.428714  0.259280  0.228689  -0.519515
    H   H12  0.500361  0.194694  0.226756  0.338281
    O   O13  0.122806  0.261425  0.555219  -0.517074
    H   H13  0.121186  0.196159  0.503926  0.353596
    O   O14  0.876855  0.737563  0.443367  -0.539106
    H   H14  0.869433  0.722232  0.378964  0.378582
    O   O15  0.877679  0.261826  0.556641  -0.530257
    H   H15  0.869389  0.276703  0.621039  0.367589
    O   O16  0.122031  0.739481  0.444912  -0.525320
    H   H16  0.123666  0.803448  0.496797  0.367088
