# Generated by REPEAT Assigner based on pymatgen
data_DB0-m2_o1_o3_f0_pcu.sym.15
_audit_creation_date              2022-05-24
_audit_creation_method            REPEAT_Assigner
_cell_length_a                    10.854571
_cell_length_b                    9.430573
_cell_length_c                    19.359656
_cell_angle_alpha                 90.000000
_cell_angle_beta                  89.995047
_cell_angle_gamma                 90.000000
_cell_volume                      1981.747793
_symmetry_space_group_name_H-M    P1
_symmetry_Int_Tables_number       1
loop_
    _symmetry_equiv_pos_site_id
    _symmetry_equiv_pos_as_xyz
    1  x,y,z
loop_
    _atom_site_type_symbol
    _atom_site_label
    _atom_site_fract_x
    _atom_site_fract_y
    _atom_site_fract_z
    _atom_type_partial_charge
    O   O1   0.320423  0.620503  0.502213  -0.556467
    O   O2   0.678788  0.379313  0.497567  -0.558192
    O   O3   0.678469  0.622761  0.503113  -0.538737
    O   O4   0.320721  0.377265  0.496633  -0.533144
    C   C1   0.872001  0.501077  0.500125  0.137583
    C   C2   0.127730  0.498882  0.499524  0.137637
    C   C3   0.262768  0.498703  0.499379  0.484617
    C   C4   0.736671  0.501206  0.500368  0.487744
    O   O5   0.504815  0.622427  0.399914  -0.576587
    O   O6   0.494368  0.377411  0.599929  -0.579054
    O   O7   0.502481  0.621074  0.600677  -0.553771
    O   O8   0.496755  0.378902  0.399172  -0.544426
    C   C5   0.501731  0.500742  0.367080  0.516528
    C   C6   0.498134  0.499005  0.632751  0.528797
    Cu  Cu1  0.499847  0.641851  0.500590  1.028571
    Cu  Cu2  0.498764  0.358110  0.498897  1.012288
    C   C7   0.062590  0.372960  0.498318  -0.192077
    C   C8   0.937262  0.627104  0.500957  -0.194515
    C   C9   0.935581  0.374202  0.498542  -0.176728
    C   C10  0.064296  0.625729  0.500801  -0.174162
    H   H1   0.109790  0.272168  0.497370  0.146352
    H   H2   0.890742  0.728303  0.501597  0.147225
    H   H3   0.887166  0.274260  0.497481  0.144599
    H   H4   0.113339  0.725416  0.501672  0.143488
    C   C11  0.495378  0.372740  0.744657  -0.233516
    C   C12  0.505162  0.626421  0.255082  -0.230137
    C   C13  0.500712  0.373689  0.255092  -0.248699
    C   C14  0.500072  0.625663  0.744571  -0.250863
    H   H5   0.493592  0.272290  0.717835  0.163834
    H   H6   0.506553  0.726542  0.282010  0.162529
    H   H7   0.500509  0.273070  0.281813  0.164930
    H   H8   0.500736  0.726244  0.717825  0.166376
    C   C15  0.496105  0.373037  0.815893  -0.103385
    C   C16  0.505396  0.626268  0.183887  -0.108838
    C   C17  0.499752  0.373566  0.183826  -0.091622
    C   C18  0.501006  0.625766  0.815788  -0.088130
    H   H9   0.497134  0.272810  0.842884  0.097375
    H   H10  0.505191  0.726663  0.157033  0.099234
    H   H11  0.500164  0.273126  0.156901  0.095555
    H   H12  0.500456  0.726139  0.842604  0.094723
    C   C19  0.499030  0.499469  0.852013  0.085397
    C   C20  0.501900  0.500010  0.147639  0.088979
    C   C21  0.424432  0.072811  0.456307  0.290784
    C   C22  0.575164  0.927440  0.542798  0.314311
    C   C23  0.575699  0.074625  0.541871  0.308891
    C   C24  0.423736  0.925491  0.457268  0.322473
    C   C25  0.497726  0.499095  0.708526  0.136554
    C   C26  0.502668  0.500269  0.291200  0.139353
    C   C27  0.569822  0.597257  0.963888  -0.126447
    C   C28  0.430045  0.403232  0.035681  -0.126744
    C   C29  0.570123  0.597832  0.035123  -0.124234
    C   C30  0.429350  0.402961  0.964431  -0.122109
    H   H13  0.628090  0.671688  0.936797  0.101262
    H   H14  0.371906  0.328872  0.062863  0.100815
    H   H15  0.628110  0.673192  0.061766  0.101623
    H   H16  0.370783  0.328145  0.937775  0.101025
    N   N1   0.498400  0.854403  0.500896  -0.397259
    N   N2   0.500792  0.145610  0.499241  -0.376912
    C   C31  0.500733  0.500335  0.071631  0.032745
    C   C32  0.499466  0.499797  0.927974  0.033260
    N   N3   0.346447  0.147672  0.409568  -0.527521
    H   H17  0.254779  0.120792  0.419502  0.223066
    H   H18  0.369433  0.118278  0.359158  0.225247
    N   N4   0.655363  0.852974  0.588448  -0.527237
    H   H19  0.746171  0.880077  0.576573  0.221315
    H   H20  0.635710  0.883658  0.639081  0.224366
    N   N5   0.657270  0.152133  0.585593  -0.499624
    H   H21  0.747706  0.124575  0.573505  0.213848
    H   H22  0.639121  0.126913  0.637003  0.212658
    N   N6   0.343731  0.848015  0.412561  -0.509696
    H   H23  0.252717  0.876375  0.422973  0.217839
    H   H24  0.364943  0.872812  0.361430  0.215041
