# Generated by REPEAT Assigner based on pymatgen
data_DB0-m2_o1_o3_f0_pcu.sym.5
_audit_creation_date              2022-05-24
_audit_creation_method            REPEAT_Assigner
_cell_length_a                    10.853802
_cell_length_b                    9.433608
_cell_length_c                    19.346198
_cell_angle_alpha                 90.000000
_cell_angle_beta                  89.995044
_cell_angle_gamma                 90.000000
_cell_volume                      1980.867185
_symmetry_space_group_name_H-M    P1
_symmetry_Int_Tables_number       1
loop_
    _symmetry_equiv_pos_site_id
    _symmetry_equiv_pos_as_xyz
    1  x,y,z
loop_
    _atom_site_type_symbol
    _atom_site_label
    _atom_site_fract_x
    _atom_site_fract_y
    _atom_site_fract_z
    _atom_type_partial_charge
    O   O1   0.320428  0.621106  0.495849  -0.435617
    O   O2   0.678343  0.376816  0.500688  -0.540657
    O   O3   0.678426  0.620470  0.498747  -0.405051
    O   O4   0.320315  0.377912  0.504370  -0.573057
    C   C1   0.870917  0.498804  0.499853  0.239375
    C   C2   0.126710  0.499724  0.500135  0.246896
    C   C3   0.262358  0.499673  0.500110  0.376664
    C   C4   0.736118  0.498594  0.499584  0.378338
    O   O5   0.505871  0.621289  0.399404  -0.627519
    O   O6   0.506329  0.376818  0.600486  -0.618552
    O   O7   0.499798  0.620263  0.600258  -0.620694
    O   O8   0.499807  0.377720  0.399594  -0.633181
    C   C5   0.498558  0.499766  0.367027  1.107774
    C   C6   0.498736  0.498462  0.632605  1.091772
    Cu  Cu1  0.499115  0.641050  0.499832  0.748039
    Cu  Cu2  0.499928  0.357186  0.499976  0.894656
    C   C7   0.062518  0.373254  0.501094  -0.206295
    C   C8   0.934157  0.625328  0.500373  -0.207780
    C   C9   0.935668  0.372609  0.500701  -0.219951
    C   C10  0.061318  0.626225  0.500107  -0.204536
    H   H1   0.110271  0.272757  0.502424  0.151262
    H   H2   0.884770  0.724990  0.501894  0.152605
    H   H3   0.888632  0.272038  0.501961  0.147548
    H   H4   0.108115  0.727119  0.500702  0.153664
    C   C11  0.578902  0.413544  0.744489  0.836152
    C   C12  0.578363  0.589745  0.256125  0.875008
    C   C13  0.422198  0.411891  0.254516  0.827991
    C   C14  0.418017  0.586234  0.744039  0.872261
    C   C15  0.581075  0.417371  0.815641  -0.843038
    C   C16  0.580829  0.589266  0.184814  -0.901668
    C   C17  0.422239  0.414871  0.183192  -0.851140
    C   C18  0.416923  0.585559  0.815280  -0.901752
    H   H5   0.649176  0.354585  0.842572  0.268238
    H   H6   0.647437  0.654760  0.158377  0.249181
    H   H7   0.357914  0.348958  0.155223  0.276315
    H   H8   0.349468  0.649475  0.842026  0.253695
    C   C19  0.499560  0.502443  0.851690  0.865228
    C   C20  0.502312  0.502587  0.147774  0.872378
    C   C21  0.423320  0.072403  0.457679  0.158004
    C   C22  0.575768  0.925847  0.542291  0.317847
    C   C23  0.576931  0.072143  0.541485  0.155552
    C   C24  0.424180  0.925701  0.457306  0.337770
    C   C25  0.498331  0.499093  0.708308  -0.913843
    C   C26  0.499762  0.500156  0.291374  -0.909929
    C   C27  0.499216  0.629939  0.964143  0.262027
    C   C28  0.505043  0.376637  0.035324  0.236195
    C   C29  0.500202  0.629633  0.035554  0.252737
    C   C30  0.502341  0.376861  0.964061  0.289941
    N   N1   0.499962  0.853283  0.499661  -0.254781
    N   N2   0.498533  0.144801  0.500461  -0.187219
    C   C31  0.503517  0.503022  0.071728  -0.452790
    C   C32  0.500277  0.503361  0.927826  -0.475761
    O   O9   0.344043  0.142859  0.414732  -0.336074
    H   H9   0.261502  0.123646  0.434301  0.325929
    O   O10  0.654807  0.855103  0.585189  -0.496284
    H   H10  0.616293  0.859702  0.631572  0.359680
    O   O11  0.656277  0.142827  0.583959  -0.336511
    H   H11  0.738859  0.128373  0.563415  0.328670
    O   O12  0.346418  0.854515  0.413855  -0.497583
    H   H12  0.383789  0.865321  0.367507  0.352008
    O   O13  0.662403  0.331133  0.710120  -0.563975
    H   H13  0.630311  0.233365  0.714892  0.321262
    O   O14  0.659635  0.673282  0.291496  -0.617184
    H   H14  0.620925  0.768287  0.292019  0.366400
    O   O15  0.342639  0.323743  0.288185  -0.581826
    H   H15  0.376117  0.227754  0.279586  0.336326
    O   O16  0.336407  0.670073  0.709077  -0.625519
    H   H16  0.374293  0.765541  0.709995  0.368723
    O   O17  0.501032  0.756693  0.929852  -0.502669
    H   H17  0.417092  0.795948  0.935978  0.356428
    O   O18  0.511917  0.249965  0.069383  -0.529023
    H   H18  0.601284  0.230555  0.073274  0.371380
    O   O19  0.493046  0.755782  0.070058  -0.503378
    H   H19  0.574243  0.800925  0.062398  0.358444
    O   O20  0.497348  0.250337  0.929771  -0.531859
    H   H20  0.408202  0.230914  0.924421  0.366332
