# Generated by REPEAT Assigner based on pymatgen
data_DB0-m2_o1_o3_f0_nbo.sym.34
_audit_creation_date              2022-05-24
_audit_creation_method            REPEAT_Assigner
_cell_length_a                    21.597824
_cell_length_b                    21.597824
_cell_length_c                    38.530023
_cell_angle_alpha                 90.000000
_cell_angle_beta                  90.000000
_cell_angle_gamma                 90.000000
_cell_volume                      17972.945622
_symmetry_space_group_name_H-M    P1
_symmetry_Int_Tables_number       1
loop_
    _symmetry_equiv_pos_site_id
    _symmetry_equiv_pos_as_xyz
    1  x,y,z
loop_
    _atom_site_type_symbol
    _atom_site_label
    _atom_site_fract_x
    _atom_site_fract_y
    _atom_site_fract_z
    _atom_type_partial_charge
    O   O1    0.588451  0.051228  0.490830  -0.666572
    O   O2    0.948772  0.588451  0.490830  -0.666583
    O   O3    0.411549  0.948772  0.490830  -0.666570
    O   O4    0.051228  0.411549  0.490830  -0.666553
    O   O5    0.588451  0.948772  0.509170  -0.666594
    O   O6    0.948772  0.411549  0.509170  -0.666573
    O   O7    0.411549  0.051228  0.509170  -0.666560
    O   O8    0.051228  0.588451  0.509170  -0.666579
    O   O9    0.088451  0.551228  0.990830  -0.666560
    O   O10   0.448772  0.088451  0.990830  -0.666547
    O   O11   0.911549  0.448772  0.990830  -0.666570
    O   O12   0.551228  0.911549  0.990830  -0.666531
    O   O13   0.088451  0.448772  0.009170  -0.666566
    O   O14   0.448772  0.911549  0.009170  -0.666570
    O   O15   0.911549  0.551228  0.009170  -0.666540
    O   O16   0.551228  0.088451  0.009170  -0.666567
    C   C1    0.617629  0.000000  0.500000  0.668923
    C   C2    0.000000  0.617629  0.500000  0.668919
    C   C3    0.382371  0.000000  0.500000  0.668882
    C   C4    0.000000  0.382371  0.500000  0.668878
    C   C5    0.117629  0.500000  0.000000  0.668914
    C   C6    0.500000  0.117629  0.000000  0.668904
    C   C7    0.882371  0.500000  0.000000  0.669008
    C   C8    0.500000  0.882371  0.000000  0.668997
    O   O17   0.516274  0.051229  0.549663  -0.454114
    O   O18   0.948771  0.516274  0.549663  -0.454123
    O   O19   0.483726  0.948771  0.549663  -0.454120
    O   O20   0.051229  0.483726  0.549663  -0.454104
    O   O21   0.516274  0.948771  0.450337  -0.454132
    O   O22   0.948771  0.483726  0.450337  -0.454124
    O   O23   0.483726  0.051229  0.450337  -0.454112
    O   O24   0.051229  0.516274  0.450337  -0.454117
    O   O25   0.016274  0.551229  0.049663  -0.454114
    O   O26   0.448771  0.016274  0.049663  -0.454101
    O   O27   0.983726  0.448771  0.049663  -0.454132
    O   O28   0.551229  0.983726  0.049663  -0.454094
    O   O29   0.016274  0.448771  0.950337  -0.454122
    O   O30   0.448771  0.983726  0.950337  -0.454107
    O   O31   0.983726  0.551229  0.950337  -0.454091
    O   O32   0.551229  0.016274  0.950337  -0.454123
    C   C9    0.500000  0.000000  0.565939  0.524208
    C   C10   0.000000  0.500000  0.565939  0.524196
    C   C11   0.500000  0.000000  0.434061  0.524202
    C   C12   0.000000  0.500000  0.434061  0.524199
    C   C13   0.000000  0.500000  0.065939  0.524192
    C   C14   0.500000  0.000000  0.065939  0.524160
    C   C15   0.000000  0.500000  0.934061  0.524181
    C   C16   0.500000  0.000000  0.934061  0.524176
    Cu  Cu1   0.500000  0.060605  0.500000  0.964077
    Cu  Cu2   0.939395  0.500000  0.500000  0.964099
    Cu  Cu3   0.500000  0.939395  0.500000  0.964096
    Cu  Cu4   0.060605  0.500000  0.500000  0.964072
    Cu  Cu5   0.000000  0.560605  0.000000  0.964074
    Cu  Cu6   0.439395  0.000000  0.000000  0.964099
    Cu  Cu7   0.000000  0.439395  0.000000  0.964079
    Cu  Cu8   0.560605  0.000000  0.000000  0.964030
    C   C17   0.555048  0.995928  0.878050  -0.019515
    C   C18   0.004072  0.555048  0.878050  -0.019487
    C   C19   0.444952  0.004072  0.878050  -0.019502
    C   C20   0.995928  0.444952  0.878050  -0.019521
    C   C21   0.555048  0.004072  0.121950  -0.019484
    C   C22   0.004072  0.444952  0.121950  -0.019492
    C   C23   0.444952  0.995928  0.121950  -0.019509
    C   C24   0.995928  0.555048  0.121950  -0.019502
    C   C25   0.055048  0.495928  0.378050  -0.019506
    C   C26   0.504072  0.055048  0.378050  -0.019515
    C   C27   0.944952  0.504072  0.378050  -0.019505
    C   C28   0.495928  0.944952  0.378050  -0.019497
    C   C29   0.055048  0.504072  0.621950  -0.019508
    C   C30   0.504072  0.944952  0.621950  -0.019492
    C   C31   0.944952  0.495928  0.621950  -0.019486
    C   C32   0.495928  0.055048  0.621950  -0.019492
    H   H1    0.598597  0.992153  0.891686  0.079826
    H   H2    0.007847  0.598597  0.891686  0.079811
    H   H3    0.401403  0.007847  0.891686  0.079824
    H   H4    0.992153  0.401403  0.891686  0.079829
    H   H5    0.598597  0.007847  0.108314  0.079811
    H   H6    0.007847  0.401403  0.108314  0.079821
    H   H7    0.401403  0.992153  0.108314  0.079826
    H   H8    0.992153  0.598597  0.108314  0.079822
    H   H9    0.098597  0.492153  0.391686  0.079825
    H   H10   0.507847  0.098597  0.391686  0.079824
    H   H11   0.901403  0.507847  0.391686  0.079824
    H   H12   0.492153  0.901403  0.391686  0.079823
    H   H13   0.098597  0.507847  0.608314  0.079821
    H   H14   0.507847  0.901403  0.608314  0.079818
    H   H15   0.901403  0.492153  0.608314  0.079819
    H   H16   0.492153  0.098597  0.608314  0.079821
    C   C33   0.555056  0.995754  0.842285  -0.196339
    C   C34   0.004246  0.555056  0.842285  -0.196347
    C   C35   0.444944  0.004246  0.842285  -0.196359
    C   C36   0.995754  0.444944  0.842285  -0.196349
    C   C37   0.555056  0.004246  0.157715  -0.196353
    C   C38   0.004246  0.444944  0.157715  -0.196363
    C   C39   0.444944  0.995754  0.157715  -0.196362
    C   C40   0.995754  0.555056  0.157715  -0.196344
    C   C41   0.055056  0.495754  0.342285  -0.196345
    C   C42   0.504246  0.055056  0.342285  -0.196345
    C   C43   0.944944  0.504246  0.342285  -0.196357
    C   C44   0.495754  0.944944  0.342285  -0.196363
    C   C45   0.055056  0.504246  0.657715  -0.196340
    C   C46   0.504246  0.944944  0.657715  -0.196360
    C   C47   0.944944  0.495754  0.657715  -0.196365
    C   C48   0.495754  0.055056  0.657715  -0.196350
    H   H17   0.598793  0.993467  0.828737  0.121933
    H   H18   0.006533  0.598793  0.828737  0.121935
    H   H19   0.401207  0.006533  0.828737  0.121940
    H   H20   0.993467  0.401207  0.828737  0.121940
    H   H21   0.598793  0.006533  0.171263  0.121937
    H   H22   0.006533  0.401207  0.171263  0.121940
    H   H23   0.401206  0.993467  0.171263  0.121943
    H   H24   0.993467  0.598793  0.171263  0.121935
    H   H25   0.098793  0.493467  0.328737  0.121935
    H   H26   0.506533  0.098794  0.328737  0.121937
    H   H27   0.901207  0.506533  0.328737  0.121941
    H   H28   0.493467  0.901207  0.328737  0.121941
    H   H29   0.098793  0.506533  0.671263  0.121936
    H   H30   0.506533  0.901207  0.671263  0.121942
    H   H31   0.901207  0.493467  0.671263  0.121942
    H   H32   0.493467  0.098793  0.671263  0.121936
    C   C49   0.500000  0.000000  0.824144  0.123882
    C   C50   0.000000  0.500000  0.824144  0.123885
    C   C51   0.500000  0.000000  0.175856  0.123891
    C   C52   0.000000  0.500000  0.175856  0.123889
    C   C53   0.000000  0.500000  0.324144  0.123888
    C   C54   0.500000  0.000000  0.324144  0.123896
    C   C55   0.000000  0.500000  0.675856  0.123886
    C   C56   0.500000  0.000000  0.675856  0.123888
    C   C57   0.500000  0.000000  0.896093  -0.039127
    C   C58   0.000000  0.500000  0.896093  -0.039139
    C   C59   0.500000  0.000000  0.103907  -0.039134
    C   C60   0.000000  0.500000  0.103907  -0.039149
    C   C61   0.000000  0.500000  0.396093  -0.039141
    C   C62   0.500000  0.000000  0.396093  -0.039141
    C   C63   0.000000  0.500000  0.603907  -0.039153
    C   C64   0.500000  0.000000  0.603907  -0.039163
    C   C65   0.460880  0.038932  0.767884  -0.143137
    C   C66   0.961068  0.460880  0.767884  -0.143140
    C   C67   0.539120  0.961068  0.767884  -0.143139
    C   C68   0.038932  0.539120  0.767884  -0.143129
    C   C69   0.460880  0.961068  0.232116  -0.143134
    C   C70   0.961068  0.539120  0.232116  -0.143134
    C   C71   0.539120  0.038932  0.232116  -0.143128
    C   C72   0.038932  0.460880  0.232116  -0.143130
    C   C73   0.960880  0.538932  0.267884  -0.143132
    C   C74   0.461068  0.960880  0.267884  -0.143135
    C   C75   0.039120  0.461068  0.267884  -0.143133
    C   C76   0.538932  0.039120  0.267884  -0.143127
    C   C77   0.960880  0.461068  0.732116  -0.143131
    C   C78   0.461068  0.039120  0.732116  -0.143129
    C   C79   0.039120  0.538932  0.732116  -0.143126
    C   C80   0.538932  0.960880  0.732116  -0.143130
    H   H33   0.430536  0.070510  0.781436  0.115548
    H   H34   0.929490  0.430536  0.781436  0.115547
    H   H35   0.569464  0.929490  0.781436  0.115548
    H   H36   0.070510  0.569464  0.781436  0.115545
    H   H37   0.430536  0.929491  0.218564  0.115545
    H   H38   0.929490  0.569464  0.218564  0.115546
    H   H39   0.569464  0.070510  0.218564  0.115544
    H   H40   0.070510  0.430536  0.218564  0.115546
    H   H41   0.930536  0.570510  0.281436  0.115545
    H   H42   0.429490  0.930536  0.281436  0.115547
    H   H43   0.069464  0.429490  0.281436  0.115546
    H   H44   0.570509  0.069464  0.281436  0.115543
    H   H45   0.930536  0.429490  0.718564  0.115546
    H   H46   0.429490  0.069464  0.718564  0.115545
    H   H47   0.069464  0.570510  0.718564  0.115542
    H   H48   0.570510  0.930536  0.718564  0.115544
    C   C81   0.500000  0.000000  0.713971  0.079826
    C   C82   0.000000  0.500000  0.713971  0.079825
    C   C83   0.500000  0.000000  0.286029  0.079820
    C   C84   0.000000  0.500000  0.286029  0.079828
    C   C85   0.000000  0.500000  0.213971  0.079827
    C   C86   0.500000  0.000000  0.213971  0.079824
    C   C87   0.000000  0.500000  0.786029  0.079828
    C   C88   0.500000  0.000000  0.786029  0.079833
    C   C89   0.718546  0.970966  0.473424  -0.292350
    C   C90   0.029034  0.718546  0.473424  -0.292340
    C   C91   0.281454  0.029034  0.473424  -0.292352
    C   C92   0.970966  0.281454  0.473424  -0.292348
    C   C93   0.718546  0.029034  0.526576  -0.292329
    C   C94   0.029034  0.281454  0.526576  -0.292333
    C   C95   0.281454  0.970966  0.526576  -0.292336
    C   C96   0.970966  0.718546  0.526576  -0.292341
    C   C97   0.218546  0.470966  0.973424  -0.292343
    C   C98   0.529034  0.218546  0.973424  -0.292336
    C   C99   0.781454  0.529034  0.973424  -0.292040
    C   C100  0.470966  0.781454  0.973424  -0.292205
    C   C101  0.218546  0.529034  0.026576  -0.292334
    C   C102  0.529034  0.781454  0.026576  -0.292039
    C   C103  0.781454  0.470966  0.026576  -0.292189
    C   C104  0.470966  0.218546  0.026576  -0.292331
    C   C105  0.782455  0.972782  0.473199  0.032649
    C   C106  0.027218  0.782455  0.473199  0.032637
    C   C107  0.217545  0.027218  0.473199  0.032659
    C   C108  0.972782  0.217545  0.473199  0.032663
    C   C109  0.782455  0.027218  0.526801  0.032627
    C   C110  0.027218  0.217545  0.526801  0.032642
    C   C111  0.217545  0.972782  0.526801  0.032651
    C   C112  0.972782  0.782455  0.526801  0.032647
    C   C113  0.282455  0.472782  0.973199  0.032652
    C   C114  0.527218  0.282455  0.973199  0.032644
    C   C115  0.717545  0.527218  0.973199  0.032768
    C   C116  0.472782  0.717545  0.973199  0.032732
    C   C117  0.282455  0.527218  0.026801  0.032637
    C   C118  0.527218  0.717545  0.026801  0.032766
    C   C119  0.717545  0.472782  0.026801  0.032721
    C   C120  0.472782  0.282455  0.026801  0.032635
    H   H49   0.807323  0.950157  0.452450  0.122916
    H   H50   0.049843  0.807323  0.452450  0.122919
    H   H51   0.192677  0.049843  0.452450  0.122918
    H   H52   0.950157  0.192677  0.452450  0.122906
    H   H53   0.807323  0.049843  0.547550  0.122924
    H   H54   0.049843  0.192677  0.547550  0.122917
    H   H55   0.192677  0.950157  0.547550  0.122913
    H   H56   0.950157  0.807323  0.547550  0.122915
    H   H57   0.307323  0.450157  0.952450  0.122921
    H   H58   0.549843  0.307323  0.952450  0.122918
    H   H59   0.692677  0.549843  0.952450  0.122864
    H   H60   0.450157  0.692677  0.952450  0.122899
    H   H61   0.307323  0.549843  0.047550  0.122926
    H   H62   0.549843  0.692677  0.047550  0.122863
    H   H63   0.692677  0.450157  0.047550  0.122905
    H   H64   0.450157  0.307323  0.047550  0.122920
    C   C121  0.814633  0.000000  0.500000  -0.095671
    C   C122  0.000000  0.814633  0.500000  -0.095677
    C   C123  0.185367  0.000000  0.500000  -0.095721
    C   C124  0.000000  0.185367  0.500000  -0.095711
    C   C125  0.314633  0.500000  0.000000  -0.095693
    C   C126  0.500000  0.314633  0.000000  -0.095689
    C   C127  0.685367  0.500000  0.000000  -0.095990
    C   C128  0.500000  0.685367  0.000000  -0.095998
    C   C129  0.685727  0.000000  0.500000  0.186781
    C   C130  0.000000  0.685727  0.500000  0.186784
    C   C131  0.314273  0.000000  0.500000  0.186789
    C   C132  0.000000  0.314273  0.500000  0.186786
    C   C133  0.185727  0.500000  0.000000  0.186767
    C   C134  0.500000  0.185727  0.000000  0.186769
    C   C135  0.814273  0.500000  0.000000  0.186405
    C   C136  0.500000  0.814273  0.000000  0.186417
    O   O33   0.982168  0.088352  0.471537  -0.570032
    O   O34   0.911648  0.982168  0.471537  -0.570061
    O   O35   0.017832  0.911648  0.471537  -0.570038
    O   O36   0.088352  0.017832  0.471537  -0.570080
    O   O37   0.982168  0.911648  0.528463  -0.570045
    O   O38   0.911648  0.017832  0.528463  -0.570037
    O   O39   0.017832  0.088352  0.528463  -0.570046
    O   O40   0.088352  0.982168  0.528463  -0.570038
    O   O41   0.482168  0.588352  0.971537  -0.570080
    O   O42   0.411648  0.482168  0.971537  -0.570073
    O   O43   0.517832  0.411648  0.971537  -0.570061
    O   O44   0.588352  0.517832  0.971537  -0.570121
    O   O45   0.482168  0.411648  0.028463  -0.570059
    O   O46   0.411648  0.517832  0.028463  -0.570090
    O   O47   0.517832  0.588352  0.028463  -0.570123
    O   O48   0.588352  0.482168  0.028463  -0.570102
    C   C137  0.000000  0.117484  0.500000  0.655446
    C   C138  0.882516  0.000000  0.500000  0.655403
    C   C139  0.000000  0.882516  0.500000  0.655400
    C   C140  0.117484  0.000000  0.500000  0.655469
    C   C141  0.500000  0.617484  0.000000  0.655637
    C   C142  0.382516  0.500000  0.000000  0.655458
    C   C143  0.500000  0.382516  0.000000  0.655445
    C   C144  0.617484  0.500000  0.000000  0.655640
    Cu  Cu9   0.000000  0.000000  0.466227  0.942171
    Cu  Cu10  0.000000  0.000000  0.533773  0.942189
    Cu  Cu11  0.500000  0.500000  0.966227  0.942234
    Cu  Cu12  0.500000  0.500000  0.033773  0.942202
    C   C145  0.688204  0.937819  0.444784  0.738700
    O   O49   0.711400  0.939333  0.415938  -0.537313
    O   O50   0.640595  0.899105  0.450939  -0.258956
    C   C146  0.620832  0.858720  0.425805  -0.057210
    H   H65   0.580547  0.832190  0.435659  0.077896
    H   H66   0.658674  0.826021  0.419262  0.069438
    H   H67   0.606942  0.884689  0.402256  0.066958
    C   C147  0.062181  0.688204  0.444784  0.738695
    O   O51   0.060667  0.711400  0.415938  -0.537314
    O   O52   0.100895  0.640595  0.450939  -0.258949
    C   C148  0.141280  0.620832  0.425805  -0.057207
    H   H68   0.167810  0.580547  0.435659  0.077894
    H   H69   0.173979  0.658674  0.419262  0.069438
    H   H70   0.115311  0.606942  0.402256  0.066957
    C   C149  0.311796  0.062181  0.444784  0.738707
    O   O53   0.288600  0.060667  0.415938  -0.537317
    O   O54   0.359405  0.100895  0.450939  -0.258958
    C   C150  0.379168  0.141280  0.425805  -0.057201
    H   H71   0.419453  0.167810  0.435659  0.077893
    H   H72   0.341326  0.173979  0.419262  0.069436
    H   H73   0.393057  0.115311  0.402256  0.066960
    C   C151  0.937819  0.311796  0.444784  0.738710
    O   O55   0.939333  0.288600  0.415938  -0.537318
    O   O56   0.899105  0.359405  0.450939  -0.258960
    C   C152  0.858720  0.379168  0.425805  -0.057208
    H   H74   0.832190  0.419453  0.435659  0.077896
    H   H75   0.826021  0.341326  0.419262  0.069437
    H   H76   0.884689  0.393058  0.402256  0.066961
    C   C153  0.688204  0.062181  0.555216  0.738694
    O   O57   0.711400  0.060667  0.584062  -0.537311
    O   O58   0.640595  0.100895  0.549060  -0.258966
    C   C154  0.620832  0.141280  0.574195  -0.057197
    H   H77   0.580547  0.167810  0.564341  0.077893
    H   H78   0.658674  0.173979  0.580738  0.069439
    H   H79   0.606942  0.115311  0.597744  0.066957
    C   C155  0.062181  0.311796  0.555216  0.738705
    O   O59   0.060667  0.288600  0.584062  -0.537316
    O   O60   0.100895  0.359405  0.549060  -0.258974
    C   C156  0.141280  0.379168  0.574195  -0.057190
    H   H80   0.167810  0.419453  0.564341  0.077892
    H   H81   0.173979  0.341326  0.580738  0.069435
    H   H82   0.115311  0.393057  0.597744  0.066961
    C   C157  0.311796  0.937819  0.555216  0.738709
    O   O61   0.288600  0.939333  0.584062  -0.537315
    O   O62   0.359405  0.899105  0.549060  -0.258980
    C   C158  0.379168  0.858720  0.574195  -0.057191
    H   H83   0.419453  0.832190  0.564341  0.077893
    H   H84   0.341326  0.826021  0.580738  0.069436
    H   H85   0.393057  0.884689  0.597744  0.066961
    C   C159  0.937819  0.688204  0.555216  0.738699
    O   O63   0.939333  0.711400  0.584062  -0.537311
    O   O64   0.899105  0.640595  0.549060  -0.258969
    C   C160  0.858720  0.620832  0.574195  -0.057201
    H   H86   0.832190  0.580547  0.564341  0.077896
    H   H87   0.826021  0.658674  0.580738  0.069438
    H   H88   0.884689  0.606942  0.597744  0.066958
    C   C161  0.188204  0.437819  0.944784  0.738698
    O   O65   0.211400  0.439333  0.915938  -0.537315
    O   O66   0.140595  0.399105  0.950939  -0.258959
    C   C162  0.120832  0.358720  0.925805  -0.057211
    H   H89   0.080547  0.332190  0.935659  0.077892
    H   H90   0.158674  0.326020  0.919262  0.069440
    H   H91   0.106942  0.384689  0.902256  0.066965
    C   C163  0.562181  0.188204  0.944784  0.738690
    O   O67   0.560667  0.211400  0.915938  -0.537307
    O   O68   0.600895  0.140595  0.950940  -0.258963
    C   C164  0.641280  0.120832  0.925805  -0.057192
    H   H92   0.667810  0.080547  0.935659  0.077892
    H   H93   0.673979  0.158674  0.919262  0.069434
    H   H94   0.615311  0.106942  0.902256  0.066958
    C   C165  0.811795  0.562181  0.944784  0.738636
    O   O69   0.788600  0.560667  0.915938  -0.537300
    O   O70   0.859405  0.600895  0.950939  -0.259059
    C   C166  0.879167  0.641280  0.925805  -0.057093
    H   H95   0.919453  0.667810  0.935659  0.077869
    H   H96   0.841326  0.673979  0.919262  0.069415
    H   H97   0.893057  0.615311  0.902256  0.066935
    C   C167  0.437819  0.811795  0.944784  0.738673
    O   O71   0.439333  0.788600  0.915938  -0.537312
    O   O72   0.399105  0.859405  0.950939  -0.258954
    C   C168  0.358720  0.879168  0.925805  -0.057223
    H   H98   0.332190  0.919453  0.935659  0.077896
    H   H99   0.326021  0.841326  0.919262  0.069438
    H   H100  0.384689  0.893057  0.902256  0.066970
    C   C169  0.188204  0.562181  0.055216  0.738692
    O   O73   0.211400  0.560667  0.084062  -0.537312
    O   O74   0.140595  0.600895  0.049060  -0.258967
    C   C170  0.120832  0.641280  0.074195  -0.057187
    H   H101  0.080547  0.667810  0.064341  0.077889
    H   H102  0.158674  0.673979  0.080738  0.069435
    H   H103  0.106942  0.615311  0.097744  0.066959
    C   C171  0.562181  0.811795  0.055216  0.738643
    O   O75   0.560667  0.788600  0.084062  -0.537298
    O   O76   0.600895  0.859405  0.049060  -0.259077
    C   C172  0.641280  0.879167  0.074195  -0.057086
    H   H104  0.667810  0.919453  0.064341  0.077871
    H   H105  0.673979  0.841326  0.080738  0.069415
    H   H106  0.615311  0.893057  0.097744  0.066935
    C   C173  0.811795  0.437819  0.055216  0.738659
    O   O77   0.788600  0.439333  0.084062  -0.537309
    O   O78   0.859405  0.399105  0.049060  -0.258966
    C   C174  0.879168  0.358720  0.074195  -0.057211
    H   H107  0.919453  0.332190  0.064341  0.077893
    H   H108  0.841326  0.326021  0.080738  0.069440
    H   H109  0.893057  0.384689  0.097744  0.066970
    C   C175  0.437819  0.188204  0.055216  0.738703
    O   O79   0.439333  0.211400  0.084062  -0.537314
    O   O80   0.399105  0.140595  0.049060  -0.258973
    C   C176  0.358720  0.120832  0.074195  -0.057203
    H   H110  0.332190  0.080547  0.064341  0.077893
    H   H111  0.326020  0.158674  0.080738  0.069439
    H   H112  0.384689  0.106942  0.097744  0.066964
