# Generated by REPEAT Assigner based on pymatgen
data_DB0-m2_o1_o3_f0_nbo.sym.22
_audit_creation_date              2022-05-24
_audit_creation_method            REPEAT_Assigner
_cell_length_a                    21.509643
_cell_length_b                    21.509643
_cell_length_c                    38.491497
_cell_angle_alpha                 90.000000
_cell_angle_beta                  90.000000
_cell_angle_gamma                 90.000000
_cell_volume                      17808.659025
_symmetry_space_group_name_H-M    P1
_symmetry_Int_Tables_number       1
loop_
    _symmetry_equiv_pos_site_id
    _symmetry_equiv_pos_as_xyz
    1  x,y,z
loop_
    _atom_site_type_symbol
    _atom_site_label
    _atom_site_fract_x
    _atom_site_fract_y
    _atom_site_fract_z
    _atom_type_partial_charge
    O   O1    0.588717  0.051390  0.509334  -0.571434
    O   O2    0.948610  0.588717  0.509334  -0.571454
    O   O3    0.411282  0.948610  0.509334  -0.571432
    O   O4    0.051390  0.411283  0.509334  -0.571446
    O   O5    0.588717  0.948610  0.490666  -0.571439
    O   O6    0.948610  0.411283  0.490666  -0.571451
    O   O7    0.411282  0.051390  0.490666  -0.571429
    O   O8    0.051390  0.588717  0.490666  -0.571449
    O   O9    0.088718  0.551390  0.009334  -0.571430
    O   O10   0.448610  0.088717  0.009334  -0.571443
    O   O11   0.911283  0.448610  0.009334  -0.571436
    O   O12   0.551390  0.911283  0.009334  -0.571439
    O   O13   0.088718  0.448610  0.990666  -0.571434
    O   O14   0.448610  0.911283  0.990666  -0.571444
    O   O15   0.911283  0.551390  0.990666  -0.571434
    O   O16   0.551390  0.088717  0.990666  -0.571440
    C   C1    0.617888  0.000000  0.500000  0.724299
    C   C2    0.000000  0.617888  0.500000  0.724327
    C   C3    0.382112  0.000000  0.500000  0.724287
    C   C4    0.000000  0.382112  0.500000  0.724321
    C   C5    0.117888  0.500000  0.000000  0.724263
    C   C6    0.500000  0.117888  0.000000  0.724326
    C   C7    0.882112  0.500000  0.000000  0.724253
    C   C8    0.500000  0.882112  0.000000  0.724316
    O   O17   0.483448  0.051486  0.549697  -0.635310
    O   O18   0.948514  0.483448  0.549697  -0.635341
    O   O19   0.516552  0.948514  0.549697  -0.635316
    O   O20   0.051486  0.516552  0.549697  -0.635337
    O   O21   0.483448  0.948514  0.450303  -0.635325
    O   O22   0.948514  0.516552  0.450303  -0.635350
    O   O23   0.516552  0.051486  0.450303  -0.635323
    O   O24   0.051486  0.483448  0.450303  -0.635346
    O   O25   0.983448  0.551486  0.049697  -0.635339
    O   O26   0.448514  0.983448  0.049697  -0.635357
    O   O27   0.016552  0.448514  0.049697  -0.635338
    O   O28   0.551486  0.016552  0.049697  -0.635352
    O   O29   0.983448  0.448514  0.950303  -0.635332
    O   O30   0.448514  0.016552  0.950303  -0.635345
    O   O31   0.016552  0.551486  0.950303  -0.635328
    O   O32   0.551486  0.983448  0.950303  -0.635343
    C   C9    0.500000  0.000000  0.565925  0.745852
    C   C10   0.000000  0.500000  0.565925  0.745917
    C   C11   0.500000  0.000000  0.434075  0.745882
    C   C12   0.000000  0.500000  0.434075  0.745940
    C   C13   0.000000  0.500000  0.065925  0.745879
    C   C14   0.500000  0.000000  0.065925  0.745973
    C   C15   0.000000  0.500000  0.934075  0.745955
    C   C16   0.500000  0.000000  0.934075  0.746044
    Cu  Cu1   0.500000  0.060857  0.500000  0.939797
    Cu  Cu2   0.939143  0.500000  0.500000  0.939796
    Cu  Cu3   0.500000  0.939143  0.500000  0.939796
    Cu  Cu4   0.060857  0.500000  0.500000  0.939810
    Cu  Cu5   0.000000  0.560857  0.000000  0.939761
    Cu  Cu6   0.439143  0.000000  0.000000  0.939774
    Cu  Cu7   0.000000  0.439143  0.000000  0.939746
    Cu  Cu8   0.560857  0.000000  0.000000  0.939770
    C   C17   0.552431  0.018112  0.878183  -0.065259
    C   C18   0.981888  0.552431  0.878183  -0.065285
    C   C19   0.447569  0.981888  0.878183  -0.065257
    C   C20   0.018112  0.447569  0.878183  -0.065286
    C   C21   0.552431  0.981888  0.121817  -0.065261
    C   C22   0.981888  0.447569  0.121817  -0.065288
    C   C23   0.447569  0.018112  0.121817  -0.065259
    C   C24   0.018112  0.552431  0.121817  -0.065287
    C   C25   0.052431  0.518112  0.378183  -0.065273
    C   C26   0.481888  0.052431  0.378183  -0.065285
    C   C27   0.947569  0.481888  0.378183  -0.065275
    C   C28   0.518112  0.947569  0.378183  -0.065293
    C   C29   0.052431  0.481888  0.621817  -0.065254
    C   C30   0.481888  0.947569  0.621817  -0.065264
    C   C31   0.947569  0.518112  0.621817  -0.065261
    C   C32   0.518112  0.052431  0.621817  -0.065260
    H   H1    0.593470  0.033160  0.892032  0.132027
    H   H2    0.966840  0.593470  0.892032  0.132037
    H   H3    0.406530  0.966840  0.892032  0.132026
    H   H4    0.033160  0.406530  0.892032  0.132037
    H   H5    0.593470  0.966840  0.107968  0.132026
    H   H6    0.966840  0.406530  0.107968  0.132037
    H   H7    0.406530  0.033160  0.107968  0.132027
    H   H8    0.033160  0.593470  0.107968  0.132038
    H   H9    0.093470  0.533160  0.392032  0.132030
    H   H10   0.466840  0.093470  0.392032  0.132034
    H   H11   0.906530  0.466840  0.392032  0.132029
    H   H12   0.533160  0.906530  0.392032  0.132035
    H   H13   0.093470  0.466840  0.607968  0.132021
    H   H14   0.466840  0.906530  0.607968  0.132025
    H   H15   0.906530  0.533160  0.607968  0.132022
    H   H16   0.533160  0.093470  0.607968  0.132025
    C   C33   0.551876  0.019565  0.842391  -0.416416
    C   C34   0.980435  0.551876  0.842391  -0.416406
    C   C35   0.448124  0.980435  0.842391  -0.416419
    C   C36   0.019565  0.448124  0.842391  -0.416405
    C   C37   0.551876  0.980435  0.157609  -0.416435
    C   C38   0.980435  0.448124  0.157609  -0.416419
    C   C39   0.448124  0.019565  0.157609  -0.416435
    C   C40   0.019565  0.551876  0.157609  -0.416419
    C   C41   0.051876  0.519565  0.342391  -0.416419
    C   C42   0.480435  0.051876  0.342391  -0.416418
    C   C43   0.948124  0.480435  0.342391  -0.416423
    C   C44   0.519565  0.948124  0.342391  -0.416414
    C   C45   0.051876  0.480435  0.657609  -0.416429
    C   C46   0.480435  0.948124  0.657609  -0.416437
    C   C47   0.948124  0.519565  0.657609  -0.416425
    C   C48   0.519565  0.051876  0.657609  -0.416441
    H   H17   0.592351  0.036013  0.828529  0.182423
    H   H18   0.963987  0.592351  0.828529  0.182428
    H   H19   0.407649  0.963987  0.828529  0.182425
    H   H20   0.036013  0.407649  0.828529  0.182427
    H   H21   0.592351  0.963987  0.171471  0.182432
    H   H22   0.963987  0.407649  0.171471  0.182436
    H   H23   0.407649  0.036013  0.171471  0.182431
    H   H24   0.036013  0.592350  0.171471  0.182437
    H   H25   0.092351  0.536013  0.328529  0.182428
    H   H26   0.463987  0.092351  0.328529  0.182431
    H   H27   0.907649  0.463987  0.328529  0.182431
    H   H28   0.536013  0.907649  0.328529  0.182430
    H   H29   0.092351  0.463987  0.671471  0.182434
    H   H30   0.463987  0.907649  0.671471  0.182438
    H   H31   0.907649  0.536013  0.671471  0.182434
    H   H32   0.536013  0.092351  0.671471  0.182442
    C   C49   0.500000  0.000000  0.824315  0.750188
    C   C50   0.000000  0.500000  0.824315  0.750177
    C   C51   0.500000  0.000000  0.175685  0.750172
    C   C52   0.000000  0.500000  0.175685  0.750144
    C   C53   0.000000  0.500000  0.324315  0.750163
    C   C54   0.500000  0.000000  0.324315  0.750157
    C   C55   0.000000  0.500000  0.675685  0.750135
    C   C56   0.500000  0.000000  0.675685  0.750151
    C   C57   0.500000  0.000000  0.896157  -0.092667
    C   C58   0.000000  0.500000  0.896157  -0.092617
    C   C59   0.500000  0.000000  0.103843  -0.092607
    C   C60   0.000000  0.500000  0.103843  -0.092554
    C   C61   0.000000  0.500000  0.396157  -0.092583
    C   C62   0.500000  0.000000  0.396157  -0.092543
    C   C63   0.000000  0.500000  0.603843  -0.092584
    C   C64   0.500000  0.000000  0.603843  -0.092550
    C   C65   0.460930  0.039600  0.767895  0.512855
    C   C66   0.960400  0.460930  0.767895  0.512861
    C   C67   0.539070  0.960400  0.767895  0.512868
    C   C68   0.039600  0.539070  0.767895  0.512861
    C   C69   0.460930  0.960400  0.232105  0.512869
    C   C70   0.960400  0.539070  0.232105  0.512858
    C   C71   0.539070  0.039600  0.232105  0.512868
    C   C72   0.039600  0.460930  0.232105  0.512856
    C   C73   0.960930  0.539600  0.267895  0.512867
    C   C74   0.460400  0.960930  0.267895  0.512863
    C   C75   0.039070  0.460400  0.267895  0.512865
    C   C76   0.539600  0.039070  0.267895  0.512861
    C   C77   0.960930  0.460400  0.732105  0.512870
    C   C78   0.460400  0.039070  0.732105  0.512872
    C   C79   0.039070  0.539600  0.732105  0.512868
    C   C80   0.539600  0.960930  0.732105  0.512868
    C   C81   0.500000  0.000000  0.713842  -0.896332
    C   C82   0.000000  0.500000  0.713842  -0.896325
    C   C83   0.500000  0.000000  0.286158  -0.896339
    C   C84   0.000000  0.500000  0.286158  -0.896344
    C   C85   0.000000  0.500000  0.213842  -0.896333
    C   C86   0.500000  0.000000  0.213842  -0.896350
    C   C87   0.000000  0.500000  0.786158  -0.896368
    C   C88   0.500000  0.000000  0.786158  -0.896367
    C   C89   0.718292  0.953885  0.482678  -0.445098
    C   C90   0.046114  0.718292  0.482678  -0.445096
    C   C91   0.281708  0.046114  0.482678  -0.445107
    C   C92   0.953885  0.281708  0.482678  -0.445103
    C   C93   0.718292  0.046115  0.517322  -0.445083
    C   C94   0.046114  0.281708  0.517322  -0.445084
    C   C95   0.281708  0.953885  0.517322  -0.445100
    C   C96   0.953885  0.718292  0.517322  -0.445088
    C   C97   0.218292  0.453885  0.982678  -0.445103
    C   C98   0.546115  0.218292  0.982678  -0.445090
    C   C99   0.781708  0.546114  0.982678  -0.445096
    C   C100  0.453886  0.781708  0.982678  -0.445090
    C   C101  0.218292  0.546115  0.017322  -0.445096
    C   C102  0.546115  0.781708  0.017322  -0.445088
    C   C103  0.781708  0.453885  0.017322  -0.445095
    C   C104  0.453886  0.218292  0.017322  -0.445080
    H   H33   0.693872  0.917653  0.468822  0.144085
    H   H34   0.082347  0.693872  0.468822  0.144077
    H   H35   0.306128  0.082347  0.468822  0.144080
    H   H36   0.917653  0.306128  0.468822  0.144084
    H   H37   0.693872  0.082346  0.531178  0.144082
    H   H38   0.082346  0.306128  0.531178  0.144073
    H   H39   0.306128  0.917653  0.531178  0.144082
    H   H40   0.917654  0.693872  0.531178  0.144081
    H   H41   0.193872  0.417653  0.968822  0.144092
    H   H42   0.582347  0.193872  0.968822  0.144087
    H   H43   0.806128  0.582347  0.968822  0.144084
    H   H44   0.417653  0.806128  0.968822  0.144083
    H   H45   0.193872  0.582347  0.031178  0.144085
    H   H46   0.582347  0.806128  0.031178  0.144081
    H   H47   0.806128  0.417653  0.031178  0.144083
    H   H48   0.417654  0.193872  0.031178  0.144076
    C   C105  0.782392  0.954353  0.482388  0.603246
    C   C106  0.045647  0.782392  0.482388  0.603250
    C   C107  0.217608  0.045647  0.482388  0.603246
    C   C108  0.954353  0.217608  0.482388  0.603251
    C   C109  0.782392  0.045647  0.517612  0.603226
    C   C110  0.045647  0.217608  0.517612  0.603230
    C   C111  0.217608  0.954353  0.517612  0.603230
    C   C112  0.954353  0.782392  0.517612  0.603235
    C   C113  0.282392  0.454353  0.982388  0.603245
    C   C114  0.545647  0.282392  0.982388  0.603245
    C   C115  0.717608  0.545647  0.982388  0.603231
    C   C116  0.454353  0.717608  0.982388  0.603238
    C   C117  0.282392  0.545647  0.017612  0.603238
    C   C118  0.545647  0.717608  0.017612  0.603236
    C   C119  0.717608  0.454353  0.017612  0.603227
    C   C120  0.454353  0.282392  0.017612  0.603237
    C   C121  0.814361  0.000000  0.500000  -0.485286
    C   C122  0.000000  0.814361  0.500000  -0.485296
    C   C123  0.185639  0.000000  0.500000  -0.485290
    C   C124  0.000000  0.185639  0.500000  -0.485293
    C   C125  0.314361  0.500000  0.000000  -0.485277
    C   C126  0.500000  0.314361  0.000000  -0.485287
    C   C127  0.685639  0.500000  0.000000  -0.485256
    C   C128  0.500000  0.685639  0.000000  -0.485279
    C   C129  0.685962  0.000000  0.500000  0.078561
    C   C130  0.000000  0.685962  0.500000  0.078558
    C   C131  0.314038  0.000000  0.500000  0.078588
    C   C132  0.000000  0.314038  0.500000  0.078561
    C   C133  0.185962  0.500000  0.000000  0.078573
    C   C134  0.500000  0.185962  0.000000  0.078548
    C   C135  0.814038  0.500000  0.000000  0.078584
    C   C136  0.500000  0.814038  0.000000  0.078561
    O   O33   0.016465  0.088996  0.471233  -0.639035
    O   O34   0.911004  0.016465  0.471233  -0.639039
    O   O35   0.983535  0.911004  0.471233  -0.639035
    O   O36   0.088996  0.983535  0.471233  -0.639040
    O   O37   0.016465  0.911004  0.528767  -0.639042
    O   O38   0.911004  0.983535  0.528767  -0.639045
    O   O39   0.983535  0.088996  0.528767  -0.639041
    O   O40   0.088996  0.016465  0.528767  -0.639046
    O   O41   0.516465  0.588996  0.971233  -0.638983
    O   O42   0.411004  0.516465  0.971233  -0.638982
    O   O43   0.483535  0.411004  0.971233  -0.638981
    O   O44   0.588996  0.483535  0.971233  -0.638982
    O   O45   0.516465  0.411004  0.028767  -0.639011
    O   O46   0.411004  0.483535  0.028767  -0.639012
    O   O47   0.483535  0.588996  0.028767  -0.639015
    O   O48   0.588996  0.516465  0.028767  -0.639014
    C   C137  0.000000  0.117958  0.500000  0.912771
    C   C138  0.882042  0.000000  0.500000  0.912774
    C   C139  0.000000  0.882042  0.500000  0.912768
    C   C140  0.117958  0.000000  0.500000  0.912781
    C   C141  0.500000  0.617958  0.000000  0.912683
    C   C142  0.382042  0.500000  0.000000  0.912684
    C   C143  0.500000  0.382042  0.000000  0.912681
    C   C144  0.617958  0.500000  0.000000  0.912676
    Cu  Cu9   0.000000  0.000000  0.466010  0.998045
    Cu  Cu10  0.000000  0.000000  0.533990  0.998105
    Cu  Cu11  0.500000  0.500000  0.966010  0.998023
    Cu  Cu12  0.500000  0.500000  0.033990  0.998029
    N   N1    0.422018  0.083258  0.785378  -0.872399
    H   H49   0.449253  0.109621  0.802323  0.323953
    H   H50   0.387819  0.059498  0.799239  0.326755
    N   N2    0.916742  0.422018  0.785378  -0.872385
    H   H51   0.890379  0.449253  0.802323  0.323946
    H   H52   0.940502  0.387819  0.799239  0.326754
    N   N3    0.577982  0.916742  0.785378  -0.872397
    H   H53   0.550747  0.890379  0.802323  0.323949
    H   H54   0.612181  0.940502  0.799239  0.326756
    N   N4    0.083258  0.577982  0.785378  -0.872387
    H   H55   0.109621  0.550747  0.802323  0.323947
    H   H56   0.059498  0.612181  0.799239  0.326753
    N   N5    0.422018  0.916742  0.214622  -0.872360
    H   H57   0.449253  0.890379  0.197677  0.323936
    H   H58   0.387819  0.940502  0.200761  0.326747
    N   N6    0.916742  0.577982  0.214622  -0.872352
    H   H59   0.890379  0.550747  0.197677  0.323934
    H   H60   0.940502  0.612181  0.200761  0.326746
    N   N7    0.577982  0.083258  0.214622  -0.872357
    H   H61   0.550747  0.109621  0.197677  0.323936
    H   H62   0.612182  0.059498  0.200761  0.326744
    N   N8    0.083258  0.422018  0.214622  -0.872347
    H   H63   0.109621  0.449253  0.197677  0.323934
    H   H64   0.059498  0.387819  0.200761  0.326743
    N   N9    0.922018  0.583258  0.285378  -0.872368
    H   H65   0.949253  0.609621  0.302323  0.323942
    H   H66   0.887818  0.559498  0.299239  0.326746
    N   N10   0.416742  0.922018  0.285378  -0.872372
    H   H67   0.390379  0.949253  0.302323  0.323942
    H   H68   0.440502  0.887819  0.299239  0.326750
    N   N11   0.077982  0.416742  0.285378  -0.872373
    H   H69   0.050747  0.390379  0.302323  0.323943
    H   H70   0.112181  0.440502  0.299239  0.326750
    N   N12   0.583258  0.077982  0.285378  -0.872369
    H   H71   0.609621  0.050747  0.302323  0.323941
    H   H72   0.559498  0.112181  0.299239  0.326748
    N   N13   0.922018  0.416742  0.714622  -0.872340
    H   H73   0.949253  0.390379  0.697677  0.323932
    H   H74   0.887819  0.440502  0.700761  0.326742
    N   N14   0.416742  0.077982  0.714622  -0.872305
    H   H75   0.390379  0.050747  0.697677  0.323921
    H   H76   0.440502  0.112182  0.700761  0.326718
    N   N15   0.077982  0.583258  0.714622  -0.872336
    H   H77   0.050747  0.609621  0.697677  0.323931
    H   H78   0.112181  0.559498  0.700761  0.326740
    N   N16   0.583258  0.922018  0.714622  -0.872333
    H   H79   0.609621  0.949253  0.697677  0.323927
    H   H80   0.559498  0.887819  0.700761  0.326738
    N   N17   0.815627  0.907004  0.464438  -0.744779
    H   H81   0.801791  0.908320  0.438454  0.291450
    H   H82   0.802070  0.864301  0.474864  0.284804
    N   N18   0.092996  0.815627  0.464438  -0.744781
    H   H83   0.091680  0.801791  0.438454  0.291452
    H   H84   0.135699  0.802070  0.474864  0.284803
    N   N19   0.184373  0.092996  0.464438  -0.744773
    H   H85   0.198209  0.091680  0.438454  0.291450
    H   H86   0.197930  0.135699  0.474864  0.284800
    N   N20   0.907004  0.184373  0.464438  -0.744786
    H   H87   0.908320  0.198209  0.438454  0.291451
    H   H88   0.864301  0.197930  0.474864  0.284806
    N   N21   0.815627  0.092996  0.535562  -0.744784
    H   H89   0.801791  0.091680  0.561546  0.291458
    H   H90   0.802070  0.135699  0.525136  0.284807
    N   N22   0.092996  0.184373  0.535562  -0.744788
    H   H91   0.091680  0.198209  0.561546  0.291460
    H   H92   0.135699  0.197930  0.525136  0.284807
    N   N23   0.184373  0.907004  0.535562  -0.744786
    H   H93   0.198209  0.908320  0.561546  0.291458
    H   H94   0.197930  0.864301  0.525136  0.284808
    N   N24   0.907004  0.815627  0.535562  -0.744795
    H   H95   0.908320  0.801791  0.561546  0.291460
    H   H96   0.864301  0.802070  0.525136  0.284811
    N   N25   0.315627  0.407004  0.964438  -0.744775
    H   H97   0.301791  0.408320  0.938454  0.291448
    H   H98   0.302070  0.364301  0.974864  0.284804
    N   N26   0.592996  0.315627  0.964438  -0.744787
    H   H99   0.591680  0.301791  0.938454  0.291451
    H   H100  0.635699  0.302070  0.974864  0.284806
    N   N27   0.684373  0.592996  0.964438  -0.744766
    H   H101  0.698209  0.591680  0.938454  0.291449
    H   H102  0.697930  0.635699  0.974864  0.284801
    N   N28   0.407004  0.684373  0.964438  -0.744783
    H   H103  0.408320  0.698209  0.938454  0.291452
    H   H104  0.364301  0.697930  0.974864  0.284804
    N   N29   0.315627  0.592996  0.035562  -0.744795
    H   H105  0.301791  0.591680  0.061546  0.291460
    H   H106  0.302070  0.635699  0.025136  0.284814
    N   N30   0.592996  0.684373  0.035562  -0.744806
    H   H107  0.591680  0.698209  0.061546  0.291463
    H   H108  0.635699  0.697930  0.025136  0.284817
    N   N31   0.684373  0.407004  0.035562  -0.744791
    H   H109  0.698209  0.408320  0.061546  0.291460
    H   H110  0.697930  0.364301  0.025136  0.284814
    N   N32   0.407004  0.315627  0.035562  -0.744807
    H   H111  0.408320  0.301791  0.061546  0.291465
    H   H112  0.364301  0.302070  0.025136  0.284816
