# Generated by REPEAT Assigner based on pymatgen
data_DB0-m2_o1_o2_f0_pcu.sym.30_sqe
_audit_creation_date              2022-05-24
_audit_creation_method            REPEAT_Assigner
_cell_length_a                    10.853811
_cell_length_b                    9.450448
_cell_length_c                    15.118037
_cell_angle_alpha                 90.000000
_cell_angle_beta                  90.005959
_cell_angle_gamma                 90.000000
_cell_volume                      1550.708072
_symmetry_space_group_name_H-M    P1
_symmetry_Int_Tables_number       1
loop_
    _symmetry_equiv_pos_site_id
    _symmetry_equiv_pos_as_xyz
    1  x,y,z
loop_
    _atom_site_type_symbol
    _atom_site_label
    _atom_site_fract_x
    _atom_site_fract_y
    _atom_site_fract_z
    _atom_type_partial_charge
    O   O1   0.321198  0.621984  0.498181  -0.609541
    O   O2   0.678394  0.378175  0.503570  -0.576788
    O   O3   0.679228  0.620788  0.495299  -0.598452
    O   O4   0.320362  0.379132  0.503202  -0.576726
    N   N1   0.501494  0.853765  0.498853  -0.110491
    N   N2   0.498613  0.146334  0.501198  0.042551
    C   C1   0.262889  0.500763  0.500940  0.722884
    C   C2   0.736750  0.499383  0.499462  0.721948
    O   O5   0.502834  0.621187  0.371071  -0.660228
    O   O6   0.494450  0.379060  0.628849  -0.510387
    O   O7   0.506086  0.621919  0.628158  -0.687533
    O   O8   0.495848  0.378032  0.371773  -0.518677
    C   C3   0.499256  0.499458  0.329971  0.758693
    C   C4   0.500093  0.500611  0.670062  0.775292
    Cu  Cu1  0.500461  0.641736  0.499651  1.010485
    Cu  Cu2  0.499217  0.358378  0.500287  0.631251
    C   C5   0.423802  0.073291  0.446157  0.018432
    C   C6   0.577668  0.926880  0.552619  0.098655
    C   C7   0.576391  0.072734  0.553568  0.014615
    C   C8   0.423857  0.927318  0.446066  0.085579
    C   C9   0.064293  0.374471  0.502834  -0.086576
    C   C10  0.935744  0.625761  0.497086  -0.086847
    C   C11  0.937210  0.373593  0.502373  -0.110999
    C   C12  0.062769  0.626904  0.497780  -0.107095
    C   C13  0.473975  0.621947  0.095498  -0.197083
    C   C14  0.465246  0.380000  0.904481  -0.154955
    C   C15  0.534334  0.619359  0.904628  -0.197559
    C   C16  0.525775  0.376696  0.095824  -0.161756
    H   H1   0.449070  0.718688  0.061986  0.123313
    H   H2   0.433894  0.286034  0.938378  0.118213
    H   H3   0.565307  0.713356  0.938647  0.118722
    H   H4   0.549656  0.279577  0.062395  0.120664
    C   C17  0.475614  0.622514  0.186648  -0.033946
    C   C18  0.466207  0.379947  0.813224  -0.057580
    C   C19  0.532644  0.620165  0.813409  -0.032611
    C   C20  0.523923  0.376639  0.187071  -0.051232
    H   H5   0.455660  0.720398  0.220636  0.119333
    H   H6   0.438342  0.285240  0.778663  0.075633
    H   H7   0.560203  0.714879  0.778730  0.122981
    H   H8   0.544720  0.279658  0.221989  0.072832
    C   C21  0.499473  0.499573  0.233032  -0.114026
    C   C22  0.499552  0.500256  0.767148  -0.120512
    H   H9   0.112944  0.274635  0.504475  0.109603
    H   H10  0.887068  0.725321  0.494356  0.110829
    H   H11  0.889944  0.273122  0.503696  0.114614
    H   H12  0.109571  0.727888  0.495638  0.116886
    C   C23  0.500121  0.499319  0.048918  0.113783
    C   C24  0.500132  0.499427  0.951216  0.118026
    C   C25  0.872005  0.499370  0.499688  -0.024843
    C   C26  0.127767  0.500972  0.500799  -0.023848
    C   C27  0.339152  0.144364  0.388355  0.361352
    N   N3   0.270207  0.200655  0.341707  -0.352832
    C   C28  0.663947  0.856282  0.609206  0.327715
    N   N4   0.733968  0.800184  0.654846  -0.347061
    C   C29  0.657564  0.143290  0.614189  0.349436
    N   N5   0.722540  0.199907  0.663423  -0.346527
    C   C30  0.339583  0.856730  0.387568  0.326520
    N   N6   0.270962  0.800600  0.340484  -0.344128
