# Generated by REPEAT Assigner based on pymatgen
data_DB0-m2_o1_o3_f0_nbo.sym.85
_audit_creation_date              2022-05-24
_audit_creation_method            REPEAT_Assigner
_cell_length_a                    21.442326
_cell_length_b                    21.442326
_cell_length_c                    38.630354
_cell_angle_alpha                 90.000000
_cell_angle_beta                  90.000000
_cell_angle_gamma                 90.000000
_cell_volume                      17761.207077
_symmetry_space_group_name_H-M    P1
_symmetry_Int_Tables_number       1
loop_
    _symmetry_equiv_pos_site_id
    _symmetry_equiv_pos_as_xyz
    1  x,y,z
loop_
    _atom_site_type_symbol
    _atom_site_label
    _atom_site_fract_x
    _atom_site_fract_y
    _atom_site_fract_z
    _atom_type_partial_charge
    C   C1    0.618069  0.000000  0.500000  0.538040
    C   C2    0.000000  0.500000  0.565692  0.868824
    C   C3    0.451212  0.782034  0.985095  0.028871
    C   C4    0.217965  0.548787  0.014905  0.029132
    C   C5    0.548787  0.782034  0.014906  0.028779
    C   C6    0.782034  0.451212  0.014905  0.028852
    C   C7    0.451213  0.217965  0.014906  0.028807
    C   C8    0.782156  0.952257  0.484060  -0.326269
    C   C9    0.047743  0.782156  0.484060  -0.326084
    C   C10   0.217844  0.047743  0.484059  -0.325784
    C   C11   0.952257  0.217844  0.484060  -0.325994
    C   C12   0.782156  0.047743  0.515940  -0.326421
    C   C13   0.500000  0.000000  0.434308  0.868956
    C   C14   0.047743  0.217844  0.515940  -0.326223
    C   C15   0.217844  0.952257  0.515941  -0.325619
    C   C16   0.952256  0.782156  0.515940  -0.326033
    C   C17   0.282156  0.452256  0.984060  -0.326199
    C   C18   0.547743  0.282156  0.984060  -0.326285
    C   C19   0.717844  0.547743  0.984060  -0.326198
    C   C20   0.452257  0.717843  0.984060  -0.325848
    C   C21   0.282156  0.547743  0.015941  -0.326306
    C   C22   0.547742  0.717844  0.015941  -0.326065
    C   C23   0.717844  0.452257  0.015941  -0.326088
    C   C24   0.000000  0.500000  0.434308  0.868967
    C   C25   0.452257  0.282156  0.015941  -0.325888
    C   C26   0.814319  0.000000  0.500000  0.230746
    C   C27   0.000000  0.814320  0.500000  0.230395
    C   C28   0.185680  0.000000  0.500000  0.229876
    C   C29   0.000000  0.185680  0.500000  0.230332
    C   C30   0.314319  0.499999  0.000001  0.230515
    C   C31   0.500000  0.314319  0.000001  0.230305
    C   C32   0.685680  0.500000  0.000001  0.230327
    C   C33   0.499999  0.685680  0.000001  0.230290
    C   C34   0.685890  0.000000  0.500000  0.090341
    C   C35   0.000000  0.500000  0.065692  0.868762
    C   C36   0.000000  0.685890  0.500000  0.090374
    C   C37   0.314110  0.000000  0.500000  0.090797
    C   C38   0.000000  0.314110  0.500000  0.090636
    C   C39   0.185890  0.500000  0.000000  0.090223
    C   C40   0.500000  0.185890  0.000000  0.090568
    C   C41   0.814110  0.500000  0.000000  0.090521
    C   C42   0.500000  0.814110  0.000000  0.090461
    C   C43   0.000000  0.117740  0.500000  0.661332
    C   C44   0.882259  0.000000  0.500000  0.661185
    C   C45   0.000000  0.882260  0.500000  0.661335
    C   C46   0.500000  0.000000  0.065692  0.869015
    C   C47   0.117740  0.000000  0.500000  0.661429
    C   C48   0.500000  0.617740  0.000001  0.661334
    C   C49   0.382260  0.500000  0.000001  0.661331
    C   C50   0.500000  0.382259  0.000001  0.661306
    C   C51   0.617740  0.500000  0.000001  0.661351
    C   C52   0.537681  0.890740  0.896383  0.068186
    C   C53   0.502268  0.836917  0.895970  0.002266
    C   C54   0.526740  0.782027  0.908677  -0.105020
    C   C55   0.586406  0.780762  0.921918  0.170970
    C   C56   0.621245  0.834693  0.923071  -0.214896
    C   C57   0.000000  0.500000  0.934308  0.868786
    C   C58   0.597081  0.889484  0.910117  -0.101708
    C   C59   0.109261  0.537679  0.896383  0.068905
    C   C60   0.163083  0.502265  0.895969  0.001520
    C   C61   0.217974  0.526736  0.908676  -0.104689
    C   C62   0.219240  0.586402  0.921917  0.170858
    C   C63   0.165309  0.621242  0.923070  -0.214669
    C   C64   0.110518  0.597079  0.910117  -0.102135
    C   C65   0.462319  0.109260  0.896383  0.069064
    C   C66   0.497731  0.163083  0.895970  0.001354
    C   C67   0.473260  0.217973  0.908677  -0.104472
    C   C68   0.500000  0.000000  0.934308  0.868882
    C   C69   0.413594  0.219238  0.921918  0.170736
    C   C70   0.378755  0.165307  0.923071  -0.214606
    C   C71   0.402919  0.110516  0.910117  -0.102255
    C   C72   0.890739  0.462320  0.896383  0.069100
    C   C73   0.836916  0.497734  0.895969  0.001303
    C   C74   0.782026  0.473263  0.908676  -0.104423
    C   C75   0.780760  0.413597  0.921917  0.170613
    C   C76   0.834691  0.378758  0.923071  -0.214605
    C   C77   0.889482  0.402921  0.910117  -0.102163
    C   C78   0.537684  0.109259  0.103617  0.067982
    C   C79   0.516082  0.946753  0.878483  0.158182
    C   C80   0.502273  0.163082  0.104030  0.002185
    C   C81   0.526746  0.217972  0.091323  -0.105025
    C   C82   0.586412  0.219235  0.078081  0.171330
    C   C83   0.621250  0.165303  0.076929  -0.215149
    C   C84   0.597085  0.110513  0.089883  -0.101577
    C   C85   0.109260  0.462319  0.103617  0.068867
    C   C86   0.163083  0.497731  0.104030  0.001457
    C   C87   0.217973  0.473260  0.091324  -0.104598
    C   C88   0.219238  0.413593  0.078082  0.170709
    C   C89   0.165307  0.378754  0.076930  -0.214669
    C   C90   0.053247  0.516080  0.878483  0.157922
    C   C91   0.110516  0.402918  0.089883  -0.102098
    C   C92   0.462315  0.890741  0.103617  0.068170
    C   C93   0.497726  0.836917  0.104030  0.002242
    C   C94   0.473254  0.782028  0.091323  -0.104766
    C   C95   0.413587  0.780765  0.078081  0.170765
    C   C96   0.378750  0.834697  0.076929  -0.214887
    C   C97   0.402915  0.889487  0.089883  -0.101669
    C   C98   0.890740  0.537681  0.103617  0.069087
    C   C99   0.836917  0.502269  0.104031  0.001433
    C   C100  0.782027  0.526740  0.091324  -0.104540
    C   C101  0.483918  0.053247  0.878483  0.157824
    C   C102  0.780762  0.586407  0.078083  0.170748
    C   C103  0.834693  0.621245  0.076930  -0.214592
    C   C104  0.889484  0.597081  0.089883  -0.102187
    C   C105  0.037681  0.390740  0.396383  0.068147
    C   C106  0.002268  0.336917  0.395970  0.002217
    C   C107  0.026739  0.282026  0.408676  -0.104979
    C   C108  0.086405  0.280761  0.421918  0.170872
    C   C109  0.121244  0.334693  0.423071  -0.214892
    C   C110  0.097081  0.389484  0.410117  -0.101674
    C   C111  0.609260  0.037682  0.396383  0.069116
    C   C112  0.000000  0.618069  0.500000  0.538263
    C   C113  0.946753  0.483919  0.878483  0.157995
    C   C114  0.663083  0.002270  0.395970  0.001235
    C   C115  0.717973  0.026742  0.408677  -0.104457
    C   C116  0.719237  0.086408  0.421918  0.170835
    C   C117  0.665305  0.121246  0.423071  -0.214738
    C   C118  0.610515  0.097082  0.410117  -0.102190
    C   C119  0.962319  0.609261  0.396383  0.068956
    C   C120  0.997732  0.663083  0.395970  0.001459
    C   C121  0.973261  0.717974  0.408676  -0.104534
    C   C122  0.913595  0.719239  0.421918  0.170785
    C   C123  0.878756  0.665308  0.423071  -0.214655
    C   C124  0.516083  0.053246  0.121518  0.158298
    C   C125  0.902919  0.610517  0.410117  -0.102131
    C   C126  0.390740  0.962317  0.396383  0.068059
    C   C127  0.336917  0.997730  0.395970  0.002444
    C   C128  0.282027  0.973258  0.408677  -0.105067
    C   C129  0.280763  0.913591  0.421918  0.170780
    C   C130  0.334695  0.878753  0.423071  -0.214732
    C   C131  0.389485  0.902917  0.410117  -0.101704
    C   C132  0.037680  0.609260  0.603617  0.069037
    C   C133  0.002267  0.663083  0.604031  0.001305
    C   C134  0.026738  0.717973  0.591324  -0.104488
    C   C135  0.053247  0.483918  0.121518  0.157918
    C   C136  0.086404  0.719239  0.578083  0.170753
    C   C137  0.121244  0.665308  0.576930  -0.214598
    C   C138  0.097080  0.610517  0.589883  -0.102175
    C   C139  0.609260  0.962319  0.603617  0.068884
    C   C140  0.663083  0.997732  0.604030  0.001438
    C   C141  0.717973  0.973260  0.591323  -0.104530
    C   C142  0.719238  0.913594  0.578082  0.170765
    C   C143  0.665307  0.878755  0.576929  -0.214674
    C   C144  0.610516  0.902919  0.589883  -0.102181
    C   C145  0.962319  0.390739  0.603617  0.068989
    C   C146  0.483916  0.946754  0.121518  0.158006
    C   C147  0.997732  0.336917  0.604031  0.001529
    C   C148  0.973261  0.282026  0.591324  -0.104621
    C   C149  0.913595  0.280761  0.578082  0.170678
    C   C150  0.878756  0.334692  0.576929  -0.214610
    C   C151  0.902919  0.389483  0.589883  -0.102220
    C   C152  0.390740  0.037681  0.603617  0.068338
    C   C153  0.336917  0.002269  0.604030  0.002152
    C   C154  0.282027  0.026740  0.591323  -0.104899
    C   C155  0.280762  0.086407  0.578082  0.170828
    C   C156  0.334693  0.121245  0.576929  -0.214777
    C   C157  0.946753  0.516082  0.121518  0.158031
    C   C158  0.389484  0.097081  0.589883  -0.101778
    C   C159  0.016081  0.446753  0.378483  0.158275
    C   C160  0.553246  0.016082  0.378483  0.157848
    C   C161  0.983919  0.553247  0.378483  0.157810
    C   C162  0.446753  0.983918  0.378483  0.158171
    C   C163  0.016081  0.553247  0.621518  0.158120
    C   C164  0.381931  0.000000  0.500000  0.537785
    C   C165  0.553247  0.983919  0.621518  0.157919
    C   C166  0.983919  0.446753  0.621518  0.157833
    C   C167  0.446753  0.016082  0.621518  0.158167
    C   C168  0.515100  0.946618  0.842785  -0.281520
    C   C169  0.053382  0.515098  0.842785  -0.281559
    C   C170  0.484900  0.053382  0.842785  -0.281451
    C   C171  0.946617  0.484901  0.842785  -0.281652
    C   C172  0.515101  0.053381  0.157215  -0.281457
    C   C173  0.053382  0.484900  0.157215  -0.281512
    C   C174  0.484899  0.946618  0.157215  -0.281394
    C   C175  0.000000  0.381931  0.500000  0.537700
    C   C176  0.946618  0.515100  0.157215  -0.281692
    C   C177  0.015099  0.446618  0.342785  -0.281549
    C   C178  0.553382  0.015099  0.342785  -0.281511
    C   C179  0.984901  0.553382  0.342785  -0.281450
    C   C180  0.446618  0.984900  0.342785  -0.281417
    C   C181  0.015099  0.553382  0.657215  -0.281646
    C   C182  0.553382  0.984901  0.657215  -0.281461
    C   C183  0.984900  0.446617  0.657215  -0.281544
    C   C184  0.446618  0.015100  0.657215  -0.281516
    C   C185  0.500000  0.000000  0.824472  0.139885
    C   C186  0.118069  0.500000  0.000000  0.538295
    C   C187  0.000000  0.500000  0.824472  0.140044
    C   C188  0.500000  0.000000  0.175528  0.139781
    C   C189  0.000000  0.500000  0.175528  0.140044
    C   C190  0.000000  0.500000  0.324472  0.139896
    C   C191  0.500000  0.000000  0.324472  0.139871
    C   C192  0.000000  0.500000  0.675528  0.140020
    C   C193  0.500000  0.000000  0.675528  0.139880
    C   C194  0.500000  0.000000  0.896519  -0.267947
    C   C195  0.000000  0.500000  0.896519  -0.267909
    C   C196  0.500000  0.000000  0.103482  -0.268047
    C   C197  0.500000  0.118069  0.000000  0.537817
    C   C198  0.000000  0.500000  0.103482  -0.267905
    C   C199  0.000000  0.500000  0.396519  -0.267997
    C   C200  0.500000  0.000000  0.396519  -0.267981
    C   C201  0.000000  0.500000  0.603482  -0.267930
    C   C202  0.500000  0.000000  0.603482  -0.267993
    C   C203  0.460374  0.038790  0.767834  -0.155380
    C   C204  0.961210  0.460374  0.767834  -0.155231
    C   C205  0.539626  0.961211  0.767834  -0.155214
    C   C206  0.038790  0.539625  0.767834  -0.155309
    C   C207  0.460373  0.961211  0.232166  -0.155304
    C   C208  0.881931  0.500000  0.000000  0.537750
    C   C209  0.961211  0.539626  0.232166  -0.155194
    C   C210  0.539627  0.038789  0.232166  -0.155323
    C   C211  0.038790  0.460374  0.232166  -0.155313
    C   C212  0.960375  0.538790  0.267834  -0.155366
    C   C213  0.461209  0.960375  0.267834  -0.155347
    C   C214  0.039626  0.461210  0.267834  -0.155243
    C   C215  0.538791  0.039625  0.267834  -0.155243
    C   C216  0.960374  0.461210  0.732166  -0.155353
    C   C217  0.461210  0.039626  0.732166  -0.155222
    C   C218  0.039626  0.538789  0.732166  -0.155161
    C   C219  0.500000  0.881931  0.000000  0.537927
    C   C220  0.538790  0.960375  0.732166  -0.155371
    C   C221  0.500000  0.000000  0.713814  0.105732
    C   C222  0.000000  0.500000  0.713814  0.105644
    C   C223  0.500000  0.000000  0.286186  0.105733
    C   C224  0.000000  0.500000  0.286186  0.105734
    C   C225  0.000000  0.500000  0.213814  0.105631
    C   C226  0.500000  0.000000  0.213814  0.105776
    C   C227  0.000000  0.500000  0.786186  0.105643
    C   C228  0.500000  0.000000  0.786186  0.105732
    C   C229  0.717966  0.951212  0.485095  0.029086
    C   C230  0.500000  0.000000  0.565692  0.868942
    C   C231  0.048788  0.717966  0.485095  0.028782
    C   C232  0.282034  0.048788  0.485095  0.028619
    C   C233  0.951212  0.282034  0.485095  0.028944
    C   C234  0.717966  0.048788  0.514905  0.029016
    C   C235  0.048788  0.282034  0.514905  0.028915
    C   C236  0.282034  0.951212  0.514905  0.028514
    C   C237  0.951212  0.717966  0.514905  0.028801
    C   C238  0.217966  0.451212  0.985095  0.029142
    C   C239  0.548787  0.217966  0.985095  0.028827
    C   C240  0.782034  0.548788  0.985095  0.028850
    Cl  Cl1   0.426363  0.837619  0.879211  -0.071302
    Cl  Cl2   0.618623  0.289620  0.063638  -0.166329
    Cl  Cl3   0.162381  0.573637  0.120789  -0.071203
    Cl  Cl4   0.289625  0.381384  0.063640  -0.166220
    Cl  Cl5   0.573632  0.837617  0.120788  -0.071388
    Cl  Cl6   0.381377  0.710379  0.063637  -0.166224
    Cl  Cl7   0.837619  0.426363  0.120789  -0.071189
    Cl  Cl8   0.710375  0.618616  0.063640  -0.166242
    Cl  Cl9   0.926362  0.337619  0.379211  -0.071310
    Cl  Cl10  0.118614  0.210374  0.436360  -0.166218
    Cl  Cl11  0.662382  0.926364  0.379212  -0.071085
    Cl  Cl12  0.618615  0.710375  0.936361  -0.166255
    Cl  Cl13  0.789623  0.118618  0.436361  -0.166242
    Cl  Cl14  0.073638  0.662381  0.379211  -0.071198
    Cl  Cl15  0.881386  0.789626  0.436360  -0.166236
    Cl  Cl16  0.337618  0.073635  0.379212  -0.071413
    Cl  Cl17  0.210377  0.881381  0.436362  -0.166202
    Cl  Cl18  0.926361  0.662380  0.620789  -0.071106
    Cl  Cl19  0.118613  0.789626  0.563640  -0.166285
    Cl  Cl20  0.662381  0.073637  0.620789  -0.071154
    Cl  Cl21  0.789625  0.881385  0.563639  -0.166280
    Cl  Cl22  0.073638  0.337619  0.620789  -0.071275
    Cl  Cl23  0.162380  0.426360  0.879211  -0.071144
    Cl  Cl24  0.881386  0.210374  0.563640  -0.166193
    Cl  Cl25  0.337619  0.926363  0.620789  -0.071346
    Cl  Cl26  0.210375  0.118616  0.563639  -0.166194
    Cl  Cl27  0.289627  0.618610  0.936360  -0.166347
    Cl  Cl28  0.573637  0.162381  0.879211  -0.071185
    Cl  Cl29  0.381385  0.289625  0.936361  -0.166252
    Cl  Cl30  0.837620  0.573640  0.879211  -0.071209
    Cl  Cl31  0.710372  0.381389  0.936360  -0.166150
    Cl  Cl32  0.426367  0.162382  0.120788  -0.071222
    Cu  Cu1   0.500000  0.061130  0.500000  0.936743
    Cu  Cu2   0.000000  0.000000  0.533563  0.958015
    Cu  Cu3   0.500000  0.500000  0.966438  0.958086
    Cu  Cu4   0.500000  0.500000  0.033563  0.957880
    Cu  Cu5   0.938870  0.500000  0.500000  0.936776
    Cu  Cu6   0.500000  0.938870  0.500000  0.936862
    Cu  Cu7   0.061130  0.500000  0.500000  0.936858
    Cu  Cu8   0.000000  0.561130  0.000000  0.936751
    Cu  Cu9   0.438870  0.000000  0.000000  0.936729
    Cu  Cu10  0.000000  0.438870  0.000000  0.936887
    Cu  Cu11  0.561130  0.000000  0.000000  0.936817
    Cu  Cu12  0.000000  0.000000  0.466437  0.957945
    H   H1    0.526197  0.903610  0.829662  0.130615
    H   H2    0.596390  0.026197  0.329662  0.130685
    H   H3    0.431098  0.874487  0.409753  0.122142
    H   H4    0.999306  0.760239  0.592080  0.098117
    H   H5    0.168119  0.666304  0.566665  0.140837
    H   H6    0.125511  0.568904  0.590247  0.122184
    H   H7    0.760239  0.000691  0.592079  0.098169
    H   H8    0.666303  0.831880  0.566664  0.140889
    H   H9    0.568903  0.874489  0.590247  0.122223
    H   H10   0.000693  0.239761  0.592080  0.098210
    H   H11   0.831881  0.333696  0.566664  0.140939
    H   H12   0.874489  0.431096  0.590247  0.122247
    H   H13   0.973804  0.596390  0.329662  0.130724
    H   H14   0.239761  0.999309  0.592079  0.098161
    H   H15   0.333697  0.168120  0.566664  0.140917
    H   H16   0.431097  0.125512  0.590247  0.122147
    H   H17   0.403610  0.973802  0.329662  0.130638
    H   H18   0.026196  0.596390  0.670339  0.130649
    H   H19   0.596390  0.973804  0.670338  0.130730
    H   H20   0.973803  0.403610  0.670339  0.130773
    H   H21   0.403610  0.026197  0.670338  0.130608
    H   H22   0.427409  0.068714  0.780853  0.117001
    H   H23   0.931285  0.427410  0.780853  0.117047
    H   H24   0.572591  0.931286  0.780853  0.117026
    H   H25   0.096390  0.526195  0.829662  0.130719
    H   H26   0.068715  0.572590  0.780853  0.116946
    H   H27   0.427408  0.931287  0.219147  0.117016
    H   H28   0.931286  0.572591  0.219147  0.116991
    H   H29   0.572592  0.068713  0.219147  0.117041
    H   H30   0.068714  0.427409  0.219147  0.116996
    H   H31   0.927410  0.568715  0.280853  0.116977
    H   H32   0.431284  0.927411  0.280853  0.117050
    H   H33   0.072590  0.431285  0.280853  0.117051
    H   H34   0.568716  0.072589  0.280853  0.116962
    H   H35   0.927409  0.431285  0.719147  0.117029
    H   H36   0.473803  0.096390  0.829662  0.130723
    H   H37   0.431285  0.072590  0.719147  0.117075
    H   H38   0.072590  0.568714  0.719147  0.116962
    H   H39   0.568715  0.927410  0.719147  0.116948
    H   H40   0.692890  0.913163  0.473140  0.046922
    H   H41   0.086837  0.692890  0.473140  0.047017
    H   H42   0.307110  0.086837  0.473140  0.047009
    H   H43   0.913163  0.307110  0.473140  0.046914
    H   H44   0.692890  0.086837  0.526860  0.046962
    H   H45   0.086837  0.307110  0.526860  0.046980
    H   H46   0.307110  0.913163  0.526860  0.047083
    H   H47   0.903609  0.473804  0.829662  0.130716
    H   H48   0.913163  0.692890  0.526860  0.047056
    H   H49   0.192890  0.413163  0.973140  0.046902
    H   H50   0.586836  0.192890  0.973139  0.047006
    H   H51   0.807110  0.586837  0.973140  0.047006
    H   H52   0.413164  0.807110  0.973139  0.046948
    H   H53   0.192890  0.586836  0.026860  0.046895
    H   H54   0.586836  0.807110  0.026861  0.046981
    H   H55   0.807110  0.413163  0.026861  0.047010
    H   H56   0.413164  0.192890  0.026861  0.046963
    H   H57   0.807057  0.914445  0.471766  0.218189
    H   H58   0.526200  0.096389  0.170339  0.130597
    H   H59   0.085555  0.807057  0.471766  0.218215
    H   H60   0.192943  0.085555  0.471766  0.218139
    H   H61   0.914445  0.192943  0.471766  0.218101
    H   H62   0.807057  0.085555  0.528234  0.218238
    H   H63   0.085555  0.192943  0.528234  0.218210
    H   H64   0.192943  0.914445  0.528234  0.218089
    H   H65   0.914444  0.807057  0.528234  0.218156
    H   H66   0.307057  0.414444  0.971767  0.218205
    H   H67   0.585555  0.307057  0.971766  0.218249
    H   H68   0.692943  0.585555  0.971766  0.218204
    H   H69   0.096390  0.473803  0.170339  0.130710
    H   H70   0.414445  0.692943  0.971766  0.218123
    H   H71   0.307057  0.585555  0.028235  0.218253
    H   H72   0.585554  0.692943  0.028235  0.218169
    H   H73   0.692943  0.414445  0.028235  0.218194
    H   H74   0.414446  0.307057  0.028235  0.218157
    H   H75   0.499308  0.739761  0.907921  0.098177
    H   H76   0.668120  0.833697  0.933336  0.140928
    H   H77   0.625511  0.931097  0.909753  0.122121
    H   H78   0.260239  0.499304  0.907920  0.098185
    H   H79   0.166306  0.668117  0.933336  0.140884
    H   H80   0.473800  0.903610  0.170339  0.130682
    H   H81   0.068905  0.625510  0.909753  0.122211
    H   H82   0.500691  0.260239  0.907921  0.098154
    H   H83   0.331880  0.166303  0.933336  0.140894
    H   H84   0.374488  0.068903  0.909753  0.122255
    H   H85   0.739760  0.500695  0.907920  0.098137
    H   H86   0.833694  0.331883  0.933336  0.140900
    H   H87   0.931095  0.374490  0.909753  0.122194
    H   H88   0.499316  0.260238  0.092078  0.098110
    H   H89   0.668125  0.166297  0.066664  0.140972
    H   H90   0.625514  0.068899  0.090247  0.122111
    H   H91   0.903610  0.526197  0.170339  0.130715
    H   H92   0.260239  0.500691  0.092079  0.098151
    H   H93   0.166303  0.331879  0.066664  0.140939
    H   H94   0.068903  0.374488  0.090247  0.122224
    H   H95   0.500684  0.739761  0.092078  0.098167
    H   H96   0.331875  0.833702  0.066664  0.140940
    H   H97   0.374486  0.931101  0.090247  0.122163
    H   H98   0.739761  0.499309  0.092080  0.098164
    H   H99   0.833697  0.668120  0.066664  0.140843
    H   H100  0.931097  0.625511  0.090247  0.122185
    H   H101  0.999308  0.239761  0.407921  0.098205
    H   H102  0.026196  0.403610  0.329662  0.130620
    H   H103  0.168119  0.333696  0.433336  0.140923
    H   H104  0.125511  0.431097  0.409753  0.122137
    H   H105  0.760239  0.999311  0.407922  0.098127
    H   H106  0.666301  0.168122  0.433336  0.140865
    H   H107  0.568901  0.125512  0.409753  0.122219
    H   H108  0.000692  0.760239  0.407921  0.098130
    H   H109  0.831881  0.666304  0.433336  0.140890
    H   H110  0.874489  0.568904  0.409753  0.122205
    H   H111  0.239761  0.000688  0.407922  0.098207
    H   H112  0.333699  0.831878  0.433336  0.140935
    O   O1    0.589067  0.051756  0.490969  -0.533644
    O   O2    0.448244  0.089068  0.990969  -0.533471
    O   O3    0.910932  0.448244  0.990969  -0.533508
    O   O4    0.551755  0.910932  0.990969  -0.533651
    O   O5    0.089067  0.448244  0.009031  -0.533726
    O   O6    0.448244  0.910932  0.009031  -0.533549
    O   O7    0.910932  0.551756  0.009031  -0.533585
    O   O8    0.551756  0.089067  0.009031  -0.533636
    O   O9    0.516499  0.051678  0.549536  -0.631740
    O   O10   0.948322  0.516499  0.549536  -0.631748
    O   O11   0.483501  0.948322  0.549536  -0.631873
    O   O12   0.948244  0.589067  0.490969  -0.533756
    O   O13   0.051678  0.483501  0.549536  -0.631816
    O   O14   0.516499  0.948322  0.450465  -0.631880
    O   O15   0.948322  0.483501  0.450464  -0.631795
    O   O16   0.483501  0.051678  0.450464  -0.631729
    O   O17   0.051678  0.516499  0.450465  -0.631822
    O   O18   0.016499  0.551678  0.049536  -0.631731
    O   O19   0.448322  0.016499  0.049536  -0.631784
    O   O20   0.983500  0.448322  0.049536  -0.631787
    O   O21   0.551678  0.983500  0.049536  -0.631827
    O   O22   0.016499  0.448322  0.950465  -0.631781
    O   O23   0.410932  0.948244  0.490969  -0.533613
    O   O24   0.448322  0.983501  0.950464  -0.631806
    O   O25   0.983501  0.551678  0.950464  -0.631749
    O   O26   0.551678  0.016499  0.950464  -0.631746
    O   O27   0.980485  0.088645  0.471814  -0.606235
    O   O28   0.911355  0.980485  0.471814  -0.606280
    O   O29   0.019515  0.911355  0.471814  -0.606322
    O   O30   0.088645  0.019515  0.471814  -0.606246
    O   O31   0.980485  0.911355  0.528186  -0.606208
    O   O32   0.911355  0.019515  0.528186  -0.606215
    O   O33   0.019515  0.088645  0.528186  -0.606249
    O   O34   0.051756  0.410932  0.490969  -0.533576
    O   O35   0.088645  0.980485  0.528186  -0.606214
    O   O36   0.480485  0.588645  0.971815  -0.606212
    O   O37   0.411355  0.480485  0.971815  -0.606237
    O   O38   0.519515  0.411355  0.971815  -0.606182
    O   O39   0.588645  0.519515  0.971815  -0.606195
    O   O40   0.480485  0.411354  0.028187  -0.606244
    O   O41   0.411355  0.519514  0.028187  -0.606317
    O   O42   0.519515  0.588645  0.028187  -0.606294
    O   O43   0.588645  0.480485  0.028187  -0.606293
    O   O44   0.589068  0.948244  0.509031  -0.533580
    O   O45   0.948244  0.410932  0.509031  -0.533481
    O   O46   0.410932  0.051756  0.509031  -0.533631
    O   O47   0.051755  0.589068  0.509031  -0.533770
    O   O48   0.089068  0.551755  0.990969  -0.533778
