# Generated by REPEAT Assigner based on pymatgen
data_DB0-m2_o1_o2_f0_nbo.sym.86_sqe
_audit_creation_date              2022-05-24
_audit_creation_method            REPEAT_Assigner
_cell_length_a                    21.517163
_cell_length_b                    21.517163
_cell_length_c                    30.023612
_cell_angle_alpha                 90.000000
_cell_angle_beta                  90.000000
_cell_angle_gamma                 90.000000
_cell_volume                      13900.581455
_symmetry_space_group_name_H-M    P1
_symmetry_Int_Tables_number       1
loop_
    _symmetry_equiv_pos_site_id
    _symmetry_equiv_pos_as_xyz
    1  x,y,z
loop_
    _atom_site_type_symbol
    _atom_site_label
    _atom_site_fract_x
    _atom_site_fract_y
    _atom_site_fract_z
    _atom_type_partial_charge
    O   O1    0.088486  0.448978  0.487146  -0.553855
    O   O2    0.448977  0.911513  0.487146  -0.553901
    O   O3    0.911514  0.551023  0.487146  -0.553770
    O   O4    0.551023  0.088486  0.487146  -0.554102
    O   O5    0.088486  0.551023  0.512854  -0.553847
    O   O6    0.448977  0.088486  0.512854  -0.554068
    O   O7    0.911514  0.448977  0.512853  -0.553768
    O   O8    0.551023  0.911514  0.512854  -0.553916
    O   O9    0.588486  0.948977  0.987146  -0.553824
    O   O10   0.948977  0.411514  0.987146  -0.553973
    O   O11   0.411514  0.051023  0.987146  -0.553758
    O   O12   0.051023  0.588486  0.987146  -0.554062
    O   O13   0.588486  0.051023  0.012854  -0.553831
    O   O14   0.948977  0.588486  0.012854  -0.554054
    O   O15   0.411514  0.948977  0.012854  -0.553736
    O   O16   0.051023  0.411514  0.012854  -0.554004
    C   C1    0.117628  0.500000  0.500000  0.641577
    C   C2    0.500000  0.882371  0.500000  0.640661
    C   C3    0.882371  0.500000  0.500000  0.641133
    C   C4    0.500000  0.117628  0.500000  0.641557
    C   C5    0.617629  0.000000  0.000000  0.641541
    C   C6    0.000000  0.382372  0.000000  0.641136
    C   C7    0.382372  0.000000  0.000000  0.641125
    C   C8    0.000000  0.617629  0.000000  0.641549
    O   O17   0.982063  0.448987  0.436622  -0.573755
    O   O18   0.448987  0.017937  0.436622  -0.574093
    O   O19   0.017938  0.551013  0.436622  -0.573831
    O   O20   0.551013  0.982062  0.436622  -0.574123
    O   O21   0.982062  0.551013  0.563378  -0.573921
    O   O22   0.448987  0.982062  0.563378  -0.574044
    O   O23   0.017937  0.448987  0.563378  -0.573889
    O   O24   0.551013  0.017938  0.563378  -0.574085
    O   O25   0.482062  0.948987  0.936622  -0.573743
    O   O26   0.948987  0.517938  0.936622  -0.574065
    O   O27   0.517938  0.051013  0.936622  -0.573835
    O   O28   0.051013  0.482062  0.936622  -0.574128
    O   O29   0.482062  0.051013  0.063378  -0.573859
    O   O30   0.948987  0.482063  0.063378  -0.573994
    O   O31   0.517938  0.948987  0.063378  -0.573766
    O   O32   0.051013  0.517938  0.063378  -0.574072
    C   C9    0.281913  0.541142  0.526788  0.066785
    C   C10   0.541144  0.718087  0.526786  0.066707
    C   C11   0.718086  0.458856  0.526783  0.066757
    C   C12   0.458858  0.281913  0.526785  0.066793
    C   C13   0.281914  0.458857  0.473217  0.066722
    C   C14   0.541142  0.281913  0.473213  0.066829
    C   C15   0.718087  0.541143  0.473213  0.066756
    C   C16   0.458855  0.718086  0.473217  0.066396
    C   C17   0.781913  0.041143  0.026785  0.066798
    C   C18   0.041143  0.218087  0.026785  0.066817
    C   C19   0.218087  0.958857  0.026785  0.066762
    C   C20   0.958857  0.781913  0.026785  0.066729
    C   C21   0.781913  0.958857  0.973214  0.066742
    C   C22   0.041143  0.781913  0.973214  0.066795
    C   C23   0.218087  0.041144  0.973214  0.066760
    C   C24   0.958856  0.218087  0.973215  0.066812
    C   C25   0.000000  0.500000  0.415686  0.638767
    C   C26   0.500000  0.999999  0.415686  0.639132
    C   C27   0.999999  0.500000  0.584314  0.639165
    C   C28   0.500000  0.000000  0.584314  0.638838
    C   C29   0.500000  0.000000  0.915686  0.638738
    C   C30   0.000000  0.500000  0.915686  0.638859
    C   C31   0.500000  0.000000  0.084314  0.638670
    C   C32   0.000000  0.500000  0.084314  0.638777
    Cu  Cu1   0.000000  0.439453  0.500000  0.949769
    Cu  Cu2   0.439453  0.000000  0.500000  0.948916
    Cu  Cu3   0.000000  0.560548  0.500000  0.949820
    Cu  Cu4   0.560548  0.000000  0.500000  0.948817
    Cu  Cu5   0.500000  0.939453  0.000000  0.949718
    Cu  Cu6   0.939453  0.500000  0.000000  0.948853
    Cu  Cu7   0.500000  0.060547  0.000000  0.949830
    Cu  Cu8   0.060547  0.500000  0.000000  0.948893
    C   C33   0.185621  0.500000  0.500001  0.049844
    C   C34   0.500000  0.814379  0.500001  0.050817
    C   C35   0.814379  0.500000  0.499999  0.050351
    C   C36   0.500000  0.185621  0.500000  0.049885
    C   C37   0.685621  0.000000  0.000000  0.049861
    C   C38   0.000000  0.314379  0.000000  0.050332
    C   C39   0.314379  0.000000  0.000000  0.050346
    C   C40   0.000000  0.685621  0.000000  0.049825
    C   C41   0.217890  0.542244  0.525715  -0.202069
    C   C42   0.542246  0.782109  0.525713  -0.202400
    C   C43   0.782108  0.457755  0.525711  -0.202218
    C   C44   0.457757  0.217891  0.525713  -0.202075
    C   C45   0.217891  0.457756  0.474288  -0.201998
    C   C46   0.542243  0.217891  0.474286  -0.202109
    C   C47   0.782109  0.542245  0.474287  -0.202226
    C   C48   0.457755  0.782108  0.474289  -0.202274
    C   C49   0.717891  0.042244  0.025713  -0.202058
    C   C50   0.042244  0.282109  0.025713  -0.202261
    C   C51   0.282109  0.957756  0.025712  -0.202224
    C   C52   0.957756  0.717891  0.025712  -0.202000
    C   C53   0.717891  0.957756  0.974287  -0.202018
    C   C54   0.042244  0.717891  0.974287  -0.202057
    C   C55   0.282109  0.042245  0.974287  -0.202231
    C   C56   0.957755  0.282109  0.974287  -0.202270
    C   C57   0.022976  0.550421  0.297716  -0.130978
    C   C58   0.550421  0.977024  0.297716  -0.131104
    C   C59   0.977025  0.449579  0.297716  -0.130967
    C   C60   0.449579  0.022975  0.297716  -0.131086
    C   C61   0.022975  0.449579  0.702284  -0.132091
    C   C62   0.550421  0.022976  0.702284  -0.130927
    C   C63   0.977023  0.550421  0.702284  -0.131758
    C   C64   0.449579  0.977024  0.702284  -0.130955
    C   C65   0.522976  0.050421  0.797716  -0.130996
    C   C66   0.050421  0.477024  0.797716  -0.131590
    C   C67   0.477025  0.949579  0.797716  -0.130961
    C   C68   0.949578  0.522976  0.797716  -0.131878
    C   C69   0.522976  0.949579  0.202284  -0.130894
    C   C70   0.050422  0.522976  0.202284  -0.130969
    C   C71   0.477024  0.050421  0.202284  -0.130955
    C   C72   0.949579  0.477025  0.202284  -0.130957
    H   H1    0.040112  0.590871  0.280283  0.111565
    H   H2    0.590871  0.959888  0.280283  0.111574
    H   H3    0.959889  0.409130  0.280283  0.111563
    H   H4    0.409129  0.040111  0.280283  0.111570
    H   H5    0.040111  0.409129  0.719717  0.111767
    H   H6    0.590871  0.040112  0.719717  0.111562
    H   H7    0.959887  0.590871  0.719717  0.111684
    H   H8    0.409130  0.959888  0.719717  0.111560
    H   H9    0.540112  0.090871  0.780283  0.111565
    H   H10   0.090870  0.459888  0.780283  0.111673
    H   H11   0.459889  0.909129  0.780283  0.111562
    H   H12   0.909129  0.540112  0.780283  0.111746
    H   H13   0.540112  0.909129  0.219717  0.111549
    H   H14   0.090871  0.540112  0.219717  0.111565
    H   H15   0.459888  0.090871  0.219717  0.111560
    H   H16   0.909130  0.459889  0.219717  0.111563
    C   C73   0.022741  0.550565  0.343623  -0.121499
    C   C74   0.550564  0.977259  0.343623  -0.121266
    C   C75   0.977261  0.449436  0.343623  -0.121491
    C   C76   0.449436  0.022740  0.343623  -0.121249
    C   C77   0.022739  0.449436  0.656377  -0.120576
    C   C78   0.550565  0.022740  0.656377  -0.121589
    C   C79   0.977259  0.550564  0.656377  -0.120870
    C   C80   0.449436  0.977260  0.656377  -0.121544
    C   C81   0.522740  0.050565  0.843623  -0.121489
    C   C82   0.050564  0.477260  0.843623  -0.121137
    C   C83   0.477260  0.949436  0.843623  -0.121501
    C   C84   0.949435  0.522740  0.843623  -0.120918
    C   C85   0.522740  0.949435  0.156377  -0.121626
    C   C86   0.050565  0.522740  0.156377  -0.121497
    C   C87   0.477260  0.050564  0.156377  -0.121577
    C   C88   0.949436  0.477260  0.156377  -0.121486
    H   H17   0.040701  0.590768  0.360911  0.130571
    H   H18   0.590767  0.959299  0.360910  0.130540
    H   H19   0.959300  0.409233  0.360910  0.130552
    H   H20   0.409232  0.040700  0.360911  0.130510
    H   H21   0.040700  0.409233  0.639089  0.130427
    H   H22   0.590768  0.040701  0.639089  0.130577
    H   H23   0.959298  0.590767  0.639089  0.130517
    H   H24   0.409233  0.959299  0.639090  0.130581
    H   H25   0.540701  0.090768  0.860911  0.130570
    H   H26   0.090767  0.459299  0.860910  0.130543
    H   H27   0.459299  0.909233  0.860910  0.130555
    H   H28   0.909232  0.540701  0.860911  0.130478
    H   H29   0.540701  0.909232  0.139089  0.130592
    H   H30   0.090768  0.540701  0.139089  0.130559
    H   H31   0.459299  0.090767  0.139090  0.130609
    H   H32   0.909233  0.459300  0.139090  0.130542
    C   C89   0.000001  0.500000  0.366862  0.001625
    C   C90   0.500000  0.999999  0.366862  0.001082
    C   C91   0.999999  0.500000  0.633138  0.000714
    C   C92   0.500000  0.000000  0.633138  0.001648
    C   C93   0.500000  0.000000  0.866862  0.001648
    C   C94   0.000000  0.500000  0.866862  0.001242
    C   C95   0.500000  0.000000  0.133138  0.001825
    C   C96   0.000000  0.500000  0.133138  0.001578
    H   H33   0.193407  0.575246  0.546404  0.145288
    H   H34   0.575249  0.806592  0.546401  0.145356
    H   H35   0.806591  0.424753  0.546401  0.145310
    H   H36   0.424756  0.193408  0.546404  0.145253
    H   H37   0.193409  0.424755  0.453598  0.145255
    H   H38   0.575244  0.193408  0.453596  0.145276
    H   H39   0.806592  0.575247  0.453598  0.145319
    H   H40   0.424752  0.806591  0.453600  0.145330
    H   H41   0.693409  0.075246  0.046403  0.145267
    H   H42   0.075246  0.306591  0.046402  0.145317
    H   H43   0.306591  0.924754  0.046402  0.145310
    H   H44   0.924754  0.693409  0.046402  0.145240
    H   H45   0.693408  0.924754  0.953597  0.145256
    H   H46   0.075246  0.693408  0.953597  0.145256
    H   H47   0.306592  0.075247  0.953598  0.145315
    H   H48   0.924753  0.306592  0.953598  0.145315
    C   C97   0.000001  0.500000  0.274450  0.089050
    C   C98   0.500000  0.000000  0.274450  0.089234
    C   C99   0.999999  0.500000  0.725550  0.090022
    C   C100  0.500000  0.000000  0.725550  0.089039
    C   C101  0.500000  0.000000  0.774450  0.089044
    C   C102  0.999999  0.500000  0.774450  0.089725
    C   C103  0.500000  0.000000  0.225550  0.088947
    C   C104  0.000001  0.500000  0.225550  0.089031
    O   O33   0.517250  0.411289  0.536701  -0.588763
    O   O34   0.411291  0.482750  0.536703  -0.588780
    O   O35   0.482752  0.588709  0.536703  -0.588778
    O   O36   0.588711  0.517249  0.536701  -0.588782
    O   O37   0.517248  0.588710  0.463299  -0.588757
    O   O38   0.411289  0.517250  0.463300  -0.588767
    O   O39   0.482749  0.411291  0.463298  -0.588730
    O   O40   0.588709  0.482751  0.463297  -0.588741
    O   O41   0.017250  0.911290  0.036701  -0.588731
    O   O42   0.911290  0.982750  0.036701  -0.588723
    O   O43   0.982751  0.088710  0.036701  -0.588738
    O   O44   0.088710  0.017250  0.036701  -0.588749
    O   O45   0.017249  0.088710  0.963298  -0.588765
    O   O46   0.911290  0.017250  0.963298  -0.588746
    O   O47   0.982751  0.911290  0.963298  -0.588733
    O   O48   0.088710  0.982751  0.963298  -0.588744
    C   C105  0.500000  0.382204  0.499999  0.691229
    C   C106  0.382204  0.500000  0.500002  0.691261
    C   C107  0.500000  0.617795  0.500001  0.691204
    C   C108  0.617796  0.500000  0.499999  0.691246
    C   C109  0.000000  0.882204  0.999999  0.691252
    C   C110  0.882204  0.000000  0.000000  0.691272
    C   C111  0.000000  0.117796  0.000000  0.691274
    C   C112  0.117796  0.000000  0.999999  0.691270
    C   C113  0.314285  0.499999  0.500003  -0.252424
    C   C114  0.500000  0.685714  0.500002  -0.252265
    C   C115  0.685714  0.499999  0.499998  -0.252445
    C   C116  0.500000  0.314285  0.499999  -0.252468
    C   C117  0.814286  0.000000  0.000000  -0.252464
    C   C118  0.000000  0.185715  0.000000  -0.252499
    C   C119  0.185714  0.000000  0.999999  -0.252450
    C   C120  0.000000  0.814286  0.999999  -0.252453
    Cu  Cu9   0.500001  0.499999  0.543498  0.844299
    Cu  Cu10  0.499999  0.500000  0.456503  0.844571
    Cu  Cu11  0.000000  0.000000  0.043497  0.844503
    Cu  Cu12  0.000000  0.000000  0.956502  0.844457
    C   C121  0.314486  0.585675  0.555305  0.769623
    O   O49   0.316631  0.640304  0.544699  -0.512073
    N   N1    0.337595  0.566726  0.597731  -0.789063
    H   H49   0.385460  0.574567  0.598058  0.339293
    H   H50   0.329712  0.519065  0.600968  0.293620
    C   C122  0.585679  0.685513  0.555300  0.769696
    O   O50   0.640306  0.683362  0.544691  -0.512097
    N   N2    0.566733  0.662407  0.597728  -0.789070
    H   H51   0.574572  0.614542  0.598056  0.339285
    H   H52   0.519073  0.670292  0.600968  0.293625
    C   C123  0.685511  0.414322  0.555298  0.769629
    O   O51   0.683353  0.359696  0.544687  -0.512084
    N   N3    0.662412  0.433268  0.597728  -0.789024
    H   H53   0.614546  0.425433  0.598058  0.339266
    H   H54   0.670301  0.480927  0.600968  0.293618
    C   C124  0.414326  0.314487  0.555302  0.769627
    O   O52   0.359698  0.316641  0.544695  -0.512077
    N   N4    0.433275  0.337590  0.597730  -0.789059
    H   H55   0.425438  0.385455  0.598060  0.339283
    H   H56   0.480935  0.329703  0.600968  0.293623
    C   C125  0.314489  0.414325  0.444701  0.769645
    O   O53   0.316647  0.359699  0.455311  -0.512084
    N   N5    0.337588  0.433273  0.402271  -0.789062
    H   H57   0.385454  0.425438  0.401941  0.339280
    H   H58   0.329698  0.480932  0.399032  0.293632
    C   C126  0.585674  0.314487  0.444696  0.769621
    O   O54   0.640302  0.316636  0.455302  -0.512078
    N   N6    0.566724  0.337593  0.402269  -0.789052
    H   H59   0.574563  0.385458  0.401941  0.339283
    H   H60   0.519063  0.329708  0.399032  0.293616
    C   C127  0.685513  0.585677  0.444698  0.769649
    O   O55   0.683365  0.640305  0.455306  -0.512083
    N   N7    0.662405  0.566730  0.402271  -0.789076
    H   H61   0.614540  0.574570  0.401944  0.339299
    H   H62   0.670290  0.519070  0.399032  0.293634
    C   C128  0.414321  0.685511  0.444703  0.769917
    O   O56   0.359696  0.683353  0.455315  -0.512159
    N   N8    0.433266  0.662410  0.402273  -0.789134
    H   H63   0.425431  0.614545  0.401943  0.339296
    H   H64   0.480925  0.670300  0.399032  0.293652
    C   C129  0.814488  0.085676  0.055301  0.769619
    O   O57   0.816640  0.140303  0.044692  -0.512076
    N   N9    0.837592  0.066728  0.097729  -0.789065
    H   H65   0.885457  0.074566  0.098058  0.339290
    H   H66   0.829705  0.019069  0.100968  0.293627
    C   C130  0.085676  0.185512  0.055300  0.769612
    O   O58   0.140304  0.183360  0.044692  -0.512072
    N   N10   0.066729  0.162408  0.097729  -0.789054
    H   H67   0.074567  0.114543  0.098058  0.339288
    H   H68   0.019070  0.170295  0.100968  0.293622
    C   C131  0.185512  0.914324  0.055300  0.769625
    O   O59   0.183358  0.859697  0.044691  -0.512074
    N   N11   0.162409  0.933271  0.097729  -0.789053
    H   H69   0.114544  0.925434  0.098058  0.339283
    H   H70   0.170296  0.980930  0.100968  0.293628
    C   C132  0.914324  0.814488  0.055300  0.769639
    O   O60   0.859697  0.816642  0.044692  -0.512075
    N   N12   0.933272  0.837591  0.097729  -0.789066
    H   H71   0.925434  0.885456  0.098058  0.339281
    H   H72   0.980931  0.829704  0.100968  0.293630
    C   C133  0.814488  0.914324  0.944699  0.769642
    O   O61   0.816640  0.859697  0.955307  -0.512079
    N   N13   0.837592  0.933272  0.902271  -0.789071
    H   H73   0.885457  0.925434  0.901942  0.339286
    H   H74   0.829705  0.980931  0.899032  0.293630
    C   C134  0.085676  0.814487  0.944698  0.769619
    O   O62   0.140304  0.816639  0.955306  -0.512081
    N   N14   0.066728  0.837592  0.902270  -0.789062
    H   H75   0.074567  0.885457  0.901942  0.339289
    H   H76   0.019069  0.829706  0.899032  0.293625
    C   C135  0.185513  0.085677  0.944699  0.769661
    O   O63   0.183361  0.140304  0.955307  -0.512085
    N   N15   0.162408  0.066729  0.902271  -0.789086
    H   H77   0.114543  0.074568  0.901942  0.339292
    H   H78   0.170294  0.019070  0.899032  0.293635
    C   C136  0.914323  0.185513  0.944699  0.769634
    O   O64   0.859696  0.183360  0.955308  -0.512080
    N   N16   0.933271  0.162409  0.902271  -0.789077
    H   H79   0.925433  0.114544  0.901942  0.339291
    H   H80   0.980930  0.170295  0.899032  0.293640
