# Generated by REPEAT Assigner based on pymatgen
data_DB0-m2_o1_o3_f0_nbo.sym.43
_audit_creation_date              2022-05-24
_audit_creation_method            REPEAT_Assigner
_cell_length_a                    21.507538
_cell_length_b                    21.507538
_cell_length_c                    38.479473
_cell_angle_alpha                 90.000000
_cell_angle_beta                  90.000000
_cell_angle_gamma                 90.000000
_cell_volume                      17799.611271
_symmetry_space_group_name_H-M    P1
_symmetry_Int_Tables_number       1
loop_
    _symmetry_equiv_pos_site_id
    _symmetry_equiv_pos_as_xyz
    1  x,y,z
loop_
    _atom_site_type_symbol
    _atom_site_label
    _atom_site_fract_x
    _atom_site_fract_y
    _atom_site_fract_z
    _atom_type_partial_charge
    O   O1    0.588648  0.051310  0.509561  -0.588998
    O   O2    0.948691  0.588648  0.509561  -0.588984
    O   O3    0.411352  0.948690  0.509561  -0.588976
    O   O4    0.051310  0.411352  0.509561  -0.588988
    O   O5    0.588648  0.948691  0.490439  -0.588977
    O   O6    0.948690  0.411352  0.490439  -0.588985
    O   O7    0.411352  0.051310  0.490439  -0.588995
    O   O8    0.051310  0.588648  0.490439  -0.588989
    O   O9    0.088648  0.551310  0.009561  -0.588998
    O   O10   0.448690  0.088648  0.009561  -0.588994
    O   O11   0.911352  0.448690  0.009561  -0.588993
    O   O12   0.551310  0.911352  0.009561  -0.588999
    O   O13   0.088648  0.448690  0.990439  -0.588992
    O   O14   0.448690  0.911352  0.990439  -0.588994
    O   O15   0.911352  0.551310  0.990439  -0.588997
    O   O16   0.551310  0.088648  0.990439  -0.588994
    C   C1    0.617761  0.000000  0.500000  0.647022
    C   C2    0.000000  0.617761  0.500000  0.647019
    C   C3    0.382239  0.000000  0.500000  0.647015
    C   C4    0.000000  0.382239  0.500000  0.647019
    C   C5    0.117761  0.500000  0.000000  0.647029
    C   C6    0.500000  0.117761  0.000000  0.647023
    C   C7    0.882238  0.500000  0.000000  0.647061
    C   C8    0.500000  0.882238  0.000000  0.647063
    O   O17   0.483065  0.051393  0.549671  -0.615899
    O   O18   0.948607  0.483065  0.549671  -0.615899
    O   O19   0.516935  0.948607  0.549671  -0.615885
    O   O20   0.051393  0.516935  0.549671  -0.615893
    O   O21   0.483065  0.948607  0.450329  -0.615889
    O   O22   0.948607  0.516935  0.450329  -0.615896
    O   O23   0.516935  0.051393  0.450329  -0.615899
    O   O24   0.051393  0.483065  0.450329  -0.615893
    O   O25   0.983065  0.551393  0.049671  -0.615896
    O   O26   0.448607  0.983065  0.049671  -0.615895
    O   O27   0.016935  0.448607  0.049671  -0.615897
    O   O28   0.551393  0.016935  0.049671  -0.615899
    O   O29   0.983065  0.448607  0.950329  -0.615892
    O   O30   0.448607  0.016935  0.950329  -0.615898
    O   O31   0.016935  0.551393  0.950329  -0.615898
    O   O32   0.551393  0.983065  0.950329  -0.615895
    C   C9    0.500000  0.000000  0.565913  0.764812
    C   C10   0.000000  0.500000  0.565913  0.764827
    C   C11   0.500000  0.000000  0.434087  0.764819
    C   C12   0.000000  0.500000  0.434087  0.764816
    C   C13   0.000000  0.500000  0.065913  0.764809
    C   C14   0.500000  0.000000  0.065913  0.764801
    C   C15   0.000000  0.500000  0.934087  0.764822
    C   C16   0.500000  0.000000  0.934087  0.764823
    Cu  Cu1   0.500000  0.060803  0.500000  0.960422
    Cu  Cu2   0.939197  0.500000  0.500000  0.960377
    Cu  Cu3   0.500000  0.939197  0.500000  0.960404
    Cu  Cu4   0.060803  0.500000  0.500000  0.960466
    Cu  Cu5   0.000000  0.560803  0.000000  0.960420
    Cu  Cu6   0.439197  0.000000  0.000000  0.960414
    Cu  Cu7   0.000000  0.439197  0.000000  0.960407
    Cu  Cu8   0.560803  0.000000  0.000000  0.960414
    C   C17   0.446319  0.985985  0.878152  -0.091467
    C   C18   0.014015  0.446319  0.878152  -0.091476
    C   C19   0.553681  0.014015  0.878152  -0.091461
    C   C20   0.985985  0.553680  0.878152  -0.091490
    C   C21   0.446319  0.014015  0.121848  -0.091476
    C   C22   0.014015  0.553681  0.121848  -0.091456
    C   C23   0.553681  0.985985  0.121848  -0.091521
    C   C24   0.985985  0.446319  0.121848  -0.091467
    C   C25   0.946319  0.485985  0.378152  -0.091451
    C   C26   0.514015  0.946319  0.378152  -0.091444
    C   C27   0.053681  0.514015  0.378152  -0.091438
    C   C28   0.485985  0.053681  0.378152  -0.091454
    C   C29   0.946319  0.514015  0.621848  -0.091453
    C   C30   0.514015  0.053681  0.621848  -0.091438
    C   C31   0.053681  0.485985  0.621848  -0.091463
    C   C32   0.485985  0.946319  0.621848  -0.091451
    H   H1    0.404189  0.974152  0.891954  0.115274
    H   H2    0.025848  0.404189  0.891954  0.115272
    H   H3    0.595811  0.025848  0.891954  0.115270
    H   H4    0.974152  0.595811  0.891954  0.115274
    H   H5    0.404189  0.025848  0.108046  0.115269
    H   H6    0.025848  0.595811  0.108046  0.115269
    H   H7    0.595811  0.974152  0.108046  0.115282
    H   H8    0.974152  0.404189  0.108046  0.115273
    H   H9    0.904189  0.474152  0.391954  0.115268
    H   H10   0.525848  0.904189  0.391954  0.115266
    H   H11   0.095811  0.525848  0.391954  0.115266
    H   H12   0.474152  0.095811  0.391954  0.115270
    H   H13   0.904189  0.525848  0.608046  0.115267
    H   H14   0.525848  0.095811  0.608046  0.115265
    H   H15   0.095811  0.474152  0.608046  0.115270
    H   H16   0.474152  0.904189  0.608046  0.115269
    C   C33   0.446737  0.984535  0.842362  -0.187820
    C   C34   0.015465  0.446737  0.842362  -0.187814
    C   C35   0.553263  0.015465  0.842362  -0.187831
    C   C36   0.984535  0.553263  0.842362  -0.187761
    C   C37   0.446737  0.015465  0.157638  -0.187794
    C   C38   0.015465  0.553263  0.157638  -0.187843
    C   C39   0.553263  0.984535  0.157638  -0.187705
    C   C40   0.984535  0.446737  0.157638  -0.187823
    C   C41   0.946737  0.484535  0.342362  -0.187825
    C   C42   0.515465  0.946737  0.342362  -0.187830
    C   C43   0.053263  0.515465  0.342362  -0.187845
    C   C44   0.484535  0.053263  0.342362  -0.187826
    C   C45   0.946737  0.515465  0.657638  -0.187811
    C   C46   0.515465  0.053263  0.657638  -0.187847
    C   C47   0.053263  0.484535  0.657638  -0.187774
    C   C48   0.484535  0.946737  0.657638  -0.187825
    H   H17   0.405054  0.971344  0.828530  0.107170
    H   H18   0.028656  0.405053  0.828530  0.107167
    H   H19   0.594946  0.028656  0.828530  0.107175
    H   H20   0.971344  0.594946  0.828530  0.107141
    H   H21   0.405053  0.028656  0.171470  0.107175
    H   H22   0.028656  0.594947  0.171470  0.107178
    H   H23   0.594946  0.971344  0.171470  0.107135
    H   H24   0.971344  0.405054  0.171470  0.107171
    H   H25   0.905054  0.471344  0.328530  0.107170
    H   H26   0.528656  0.905054  0.328530  0.107172
    H   H27   0.094947  0.528656  0.328530  0.107175
    H   H28   0.471344  0.094946  0.328530  0.107167
    H   H29   0.905054  0.528656  0.671470  0.107166
    H   H30   0.528656  0.094947  0.671470  0.107175
    H   H31   0.094947  0.471344  0.671470  0.107138
    H   H32   0.471344  0.905054  0.671470  0.107169
    C   C49   0.500000  0.000000  0.824252  0.271841
    C   C50   0.000000  0.500000  0.824252  0.271807
    C   C51   0.500000  0.000000  0.175748  0.271726
    C   C52   0.000000  0.500000  0.175748  0.271844
    C   C53   0.000000  0.500000  0.324252  0.271851
    C   C54   0.500000  0.000000  0.324252  0.271859
    C   C55   0.000000  0.500000  0.675748  0.271811
    C   C56   0.500000  0.000000  0.675748  0.271849
    C   C57   0.500000  0.000000  0.896142  -0.105183
    C   C58   0.000000  0.500000  0.896142  -0.105165
    C   C59   0.500000  0.000000  0.103858  -0.105141
    C   C60   0.000000  0.500000  0.103858  -0.105172
    C   C61   0.000000  0.500000  0.396142  -0.105202
    C   C62   0.500000  0.000000  0.396142  -0.105198
    C   C63   0.000000  0.500000  0.603858  -0.105205
    C   C64   0.500000  0.000000  0.603858  -0.105197
    C   C65   0.460828  0.039672  0.767997  -0.041268
    C   C66   0.960328  0.460828  0.767997  -0.041293
    C   C67   0.539172  0.960328  0.767997  -0.041277
    C   C68   0.039672  0.539172  0.767997  -0.041279
    C   C69   0.460828  0.960328  0.232003  -0.041255
    C   C70   0.960328  0.539172  0.232003  -0.041279
    C   C71   0.539172  0.039672  0.232003  -0.041237
    C   C72   0.039672  0.460828  0.232003  -0.041271
    C   C73   0.960828  0.539672  0.267997  -0.041273
    C   C74   0.460328  0.960828  0.267997  -0.041307
    C   C75   0.039172  0.460328  0.267997  -0.041275
    C   C76   0.539672  0.039172  0.267997  -0.041272
    C   C77   0.960828  0.460328  0.732003  -0.041295
    C   C78   0.460328  0.039172  0.732003  -0.041284
    C   C79   0.039172  0.539672  0.732003  -0.041263
    C   C80   0.539672  0.960828  0.732003  -0.041272
    C   C81   0.500000  0.000000  0.713930  -0.107828
    C   C82   0.000000  0.500000  0.713930  -0.107785
    C   C83   0.500000  0.000000  0.286070  -0.107826
    C   C84   0.000000  0.500000  0.286070  -0.107835
    C   C85   0.000000  0.500000  0.213930  -0.107826
    C   C86   0.500000  0.000000  0.213930  -0.107803
    C   C87   0.000000  0.500000  0.786070  -0.107785
    C   C88   0.500000  0.000000  0.786070  -0.107831
    C   C89   0.718006  0.959743  0.478644  -0.120376
    C   C90   0.040257  0.718006  0.478644  -0.120379
    C   C91   0.281994  0.040257  0.478644  -0.120388
    C   C92   0.959743  0.281994  0.478644  -0.120384
    C   C93   0.718006  0.040257  0.521356  -0.120377
    C   C94   0.040257  0.281994  0.521356  -0.120381
    C   C95   0.281994  0.959743  0.521356  -0.120383
    C   C96   0.959743  0.718006  0.521356  -0.120374
    C   C97   0.218006  0.459743  0.978644  -0.120373
    C   C98   0.540257  0.218006  0.978644  -0.120383
    C   C99   0.781994  0.540257  0.978644  -0.120371
    C   C100  0.459743  0.781994  0.978644  -0.120368
    C   C101  0.218006  0.540257  0.021356  -0.120386
    C   C102  0.540257  0.781994  0.021356  -0.120361
    C   C103  0.781994  0.459743  0.021356  -0.120370
    C   C104  0.459743  0.218006  0.021356  -0.120375
    H   H33   0.693476  0.928262  0.461581  0.124799
    H   H34   0.071738  0.693476  0.461581  0.124801
    H   H35   0.306525  0.071738  0.461581  0.124806
    H   H36   0.928262  0.306524  0.461581  0.124803
    H   H37   0.693476  0.071738  0.538419  0.124801
    H   H38   0.071738  0.306524  0.538419  0.124804
    H   H39   0.306524  0.928262  0.538419  0.124803
    H   H40   0.928262  0.693476  0.538419  0.124798
    H   H41   0.193476  0.428262  0.961581  0.124801
    H   H42   0.571738  0.193476  0.961581  0.124804
    H   H43   0.806525  0.571738  0.961581  0.124802
    H   H44   0.428262  0.806525  0.961581  0.124801
    H   H45   0.193476  0.571738  0.038419  0.124805
    H   H46   0.571738  0.806524  0.038419  0.124802
    H   H47   0.806525  0.428262  0.038419  0.124800
    H   H48   0.428262  0.193476  0.038419  0.124801
    C   C105  0.782085  0.960544  0.478182  -0.087104
    C   C106  0.039456  0.782085  0.478182  -0.087104
    C   C107  0.217915  0.039456  0.478182  -0.087112
    C   C108  0.960544  0.217915  0.478182  -0.087107
    C   C109  0.782085  0.039456  0.521818  -0.087106
    C   C110  0.039456  0.217915  0.521818  -0.087113
    C   C111  0.217915  0.960544  0.521818  -0.087115
    C   C112  0.960544  0.782085  0.521818  -0.087107
    C   C113  0.282085  0.460544  0.978182  -0.087112
    C   C114  0.539456  0.282085  0.978182  -0.087097
    C   C115  0.717915  0.539456  0.978182  -0.087111
    C   C116  0.460544  0.717915  0.978182  -0.087106
    C   C117  0.282085  0.539456  0.021818  -0.087098
    C   C118  0.539456  0.717915  0.021818  -0.087120
    C   C119  0.717915  0.460544  0.021818  -0.087112
    C   C120  0.460544  0.282085  0.021818  -0.087106
    H   H49   0.806613  0.929041  0.461131  0.116430
    H   H50   0.070959  0.806614  0.461131  0.116427
    H   H51   0.193386  0.070959  0.461131  0.116427
    H   H52   0.929041  0.193387  0.461131  0.116429
    H   H53   0.806613  0.070959  0.538869  0.116429
    H   H54   0.070959  0.193386  0.538869  0.116428
    H   H55   0.193386  0.929041  0.538869  0.116430
    H   H56   0.929041  0.806613  0.538869  0.116430
    H   H57   0.306613  0.429041  0.961131  0.116428
    H   H58   0.570959  0.306613  0.961131  0.116424
    H   H59   0.693386  0.570959  0.961131  0.116424
    H   H60   0.429041  0.693386  0.961131  0.116420
    H   H61   0.306613  0.570959  0.038869  0.116426
    H   H62   0.570959  0.693386  0.038869  0.116422
    H   H63   0.693386  0.429041  0.038869  0.116427
    H   H64   0.429041  0.306613  0.038869  0.116425
    C   C121  0.814352  0.000000  0.500000  -0.049306
    C   C122  0.000000  0.814352  0.500000  -0.049304
    C   C123  0.185648  0.000000  0.500000  -0.049268
    C   C124  0.000000  0.185648  0.500000  -0.049274
    C   C125  0.314352  0.500000  0.000000  -0.049297
    C   C126  0.500000  0.314352  0.000000  -0.049308
    C   C127  0.685648  0.500000  0.000000  -0.049271
    C   C128  0.500000  0.685648  0.000000  -0.049266
    C   C129  0.685739  0.000000  0.500000  0.023277
    C   C130  0.000000  0.685739  0.500000  0.023275
    C   C131  0.314261  0.000000  0.500000  0.023287
    C   C132  0.000000  0.314261  0.500000  0.023277
    C   C133  0.185739  0.500000  0.000000  0.023277
    C   C134  0.500000  0.185739  0.000000  0.023279
    C   C135  0.814261  0.500000  0.000000  0.023251
    C   C136  0.500000  0.814261  0.000000  0.023241
    O   O33   0.981205  0.088532  0.471616  -0.602229
    O   O34   0.911468  0.981205  0.471616  -0.602224
    O   O35   0.018795  0.911468  0.471616  -0.602223
    O   O36   0.088532  0.018795  0.471616  -0.602226
    O   O37   0.981205  0.911468  0.528384  -0.602248
    O   O38   0.911468  0.018795  0.528384  -0.602248
    O   O39   0.018795  0.088532  0.528384  -0.602251
    O   O40   0.088532  0.981205  0.528384  -0.602250
    O   O41   0.481205  0.588532  0.971616  -0.602219
    O   O42   0.411468  0.481205  0.971616  -0.602243
    O   O43   0.518795  0.411468  0.971616  -0.602238
    O   O44   0.588532  0.518795  0.971616  -0.602227
    O   O45   0.481205  0.411468  0.028384  -0.602231
    O   O46   0.411468  0.518795  0.028384  -0.602248
    O   O47   0.518795  0.588532  0.028384  -0.602191
    O   O48   0.588532  0.481205  0.028384  -0.602235
    C   C137  0.000000  0.117671  0.500000  0.721552
    C   C138  0.882329  0.000000  0.500000  0.721586
    C   C139  0.000000  0.882329  0.500000  0.721583
    C   C140  0.117671  0.000000  0.500000  0.721548
    C   C141  0.500000  0.617671  0.000000  0.721500
    C   C142  0.382329  0.500000  0.000000  0.721569
    C   C143  0.500000  0.382329  0.000000  0.721568
    C   C144  0.617671  0.500000  0.000000  0.721528
    Cu  Cu9   0.000000  0.000000  0.466255  0.949429
    Cu  Cu10  0.000000  0.000000  0.533745  0.949385
    Cu  Cu11  0.500000  0.500000  0.966255  0.949410
    Cu  Cu12  0.500000  0.500000  0.033745  0.949432
    C   C145  0.420511  0.082962  0.786894  0.089033
    C   C146  0.446170  0.131752  0.805170  0.056160
    C   C147  0.408393  0.172477  0.822964  -0.457677
    C   C148  0.344693  0.165067  0.822687  0.491932
    O   O49   0.309572  0.206250  0.840478  -0.326982
    C   C149  0.245858  0.203974  0.842214  0.045439
    C   C150  0.318890  0.115922  0.804299  -0.297677
    C   C151  0.356838  0.075170  0.786577  -0.125394
    H   H65   0.495996  0.138284  0.805422  0.064371
    H   H66   0.428829  0.210648  0.837218  0.169716
    H   H67   0.228998  0.243133  0.858417  0.073982
    H   H68   0.230837  0.159708  0.854404  0.028040
    H   H69   0.225724  0.208637  0.815797  0.026507
    H   H70   0.269359  0.107985  0.803314  0.134001
    H   H71   0.336515  0.036676  0.772545  0.099374
    C   C152  0.917038  0.420511  0.786894  0.089057
    C   C153  0.868248  0.446169  0.805170  0.056149
    C   C154  0.827523  0.408392  0.822964  -0.457667
    C   C155  0.834933  0.344693  0.822687  0.491938
    O   O50   0.793750  0.309572  0.840478  -0.326986
    C   C156  0.796026  0.245858  0.842214  0.045445
    C   C157  0.884078  0.318889  0.804299  -0.297686
    C   C158  0.924831  0.356838  0.786577  -0.125408
    H   H72   0.861716  0.495995  0.805422  0.064369
    H   H73   0.789352  0.428829  0.837218  0.169713
    H   H74   0.756867  0.228998  0.858417  0.073979
    H   H75   0.840292  0.230837  0.854404  0.028037
    H   H76   0.791363  0.225724  0.815797  0.026507
    H   H77   0.892015  0.269358  0.803314  0.134007
    H   H78   0.963324  0.336515  0.772545  0.099383
    C   C159  0.579489  0.917038  0.786894  0.089036
    C   C160  0.553831  0.868248  0.805170  0.056174
    C   C161  0.591607  0.827523  0.822964  -0.457666
    C   C162  0.655307  0.834933  0.822687  0.491929
    O   O51   0.690428  0.793750  0.840478  -0.326982
    C   C163  0.754142  0.796026  0.842214  0.045439
    C   C164  0.681110  0.884078  0.804299  -0.297691
    C   C165  0.643162  0.924831  0.786577  -0.125397
    H   H79   0.504005  0.861716  0.805422  0.064362
    H   H80   0.571171  0.789352  0.837218  0.169714
    H   H81   0.771002  0.756867  0.858417  0.073981
    H   H82   0.769163  0.840292  0.854404  0.028041
    H   H83   0.774276  0.791363  0.815797  0.026507
    H   H84   0.730641  0.892015  0.803314  0.134005
    H   H85   0.663485  0.963324  0.772545  0.099380
    C   C166  0.082962  0.579489  0.786894  0.088902
    C   C167  0.131752  0.553830  0.805170  0.056215
    C   C168  0.172477  0.591607  0.822964  -0.457706
    C   C169  0.165067  0.655307  0.822687  0.491966
    O   O52   0.206250  0.690428  0.840478  -0.326989
    C   C170  0.203974  0.754142  0.842214  0.045432
    C   C171  0.115922  0.681110  0.804299  -0.297730
    C   C172  0.075170  0.643162  0.786577  -0.125298
    H   H86   0.138285  0.504004  0.805422  0.064363
    H   H87   0.210648  0.571171  0.837218  0.169722
    H   H88   0.243133  0.771002  0.858417  0.073982
    H   H89   0.159708  0.769163  0.854404  0.028045
    H   H90   0.208637  0.774276  0.815797  0.026513
    H   H91   0.107985  0.730641  0.803314  0.133996
    H   H92   0.036676  0.663485  0.772545  0.099393
    C   C173  0.420511  0.917038  0.213106  0.089071
    C   C174  0.446169  0.868248  0.194830  0.056143
    C   C175  0.408393  0.827523  0.177036  -0.457652
    C   C176  0.344693  0.834933  0.177313  0.491924
    O   O53   0.309572  0.793750  0.159522  -0.326988
    C   C177  0.245858  0.796025  0.157786  0.045451
    C   C178  0.318890  0.884077  0.195701  -0.297663
    C   C179  0.356838  0.924830  0.213423  -0.125441
    H   H93   0.495996  0.861716  0.194578  0.064368
    H   H94   0.428829  0.789352  0.162782  0.169710
    H   H95   0.228998  0.756867  0.141583  0.073982
    H   H96   0.230837  0.840292  0.145596  0.028030
    H   H97   0.225724  0.791363  0.184203  0.026505
    H   H98   0.269359  0.892015  0.196686  0.134003
    H   H99   0.336515  0.963324  0.227455  0.099386
    C   C180  0.917038  0.579489  0.213106  0.089049
    C   C181  0.868248  0.553831  0.194830  0.056161
    C   C182  0.827523  0.591607  0.177036  -0.457660
    C   C183  0.834933  0.655307  0.177313  0.491917
    O   O54   0.793750  0.690428  0.159522  -0.326985
    C   C184  0.796026  0.754142  0.157786  0.045437
    C   C185  0.884078  0.681111  0.195701  -0.297675
    C   C186  0.924830  0.643162  0.213423  -0.125421
    H   H100  0.861716  0.504005  0.194578  0.064364
    H   H101  0.789352  0.571171  0.162782  0.169715
    H   H102  0.756867  0.771002  0.141583  0.073981
    H   H103  0.840292  0.769163  0.145596  0.028041
    H   H104  0.791363  0.774276  0.184203  0.026510
    H   H105  0.892015  0.730641  0.196686  0.134010
    H   H106  0.963324  0.663485  0.227455  0.099379
    C   C187  0.579489  0.082962  0.213106  0.088829
    C   C188  0.553830  0.131752  0.194830  0.056309
    C   C189  0.591607  0.172477  0.177036  -0.457745
    C   C190  0.655307  0.165067  0.177313  0.491992
    O   O55   0.690428  0.206250  0.159522  -0.326995
    C   C191  0.754142  0.203974  0.157786  0.045428
    C   C192  0.681110  0.115923  0.195701  -0.297739
    C   C193  0.643162  0.075170  0.213423  -0.125290
    H   H107  0.504004  0.138284  0.194578  0.064337
    H   H108  0.571171  0.210648  0.162782  0.169727
    H   H109  0.771002  0.243133  0.141583  0.073983
    H   H110  0.769163  0.159708  0.145596  0.028045
    H   H111  0.774276  0.208637  0.184203  0.026515
    H   H112  0.730641  0.107985  0.196686  0.133998
    H   H113  0.663485  0.036676  0.227455  0.099393
    C   C194  0.082962  0.420511  0.213106  0.089039
    C   C195  0.131752  0.446170  0.194830  0.056151
    C   C196  0.172477  0.408393  0.177036  -0.457674
    C   C197  0.165067  0.344693  0.177313  0.491942
    O   O56   0.206251  0.309573  0.159522  -0.326990
    C   C198  0.203975  0.245858  0.157786  0.045419
    C   C199  0.115923  0.318890  0.195701  -0.297682
    C   C200  0.075170  0.356838  0.213423  -0.125406
    H   H114  0.138284  0.495996  0.194578  0.064373
    H   H115  0.210648  0.428829  0.162782  0.169716
    H   H116  0.243133  0.228999  0.141583  0.073994
    H   H117  0.159708  0.230838  0.145596  0.028041
    H   H118  0.208637  0.225724  0.184203  0.026516
    H   H119  0.107985  0.269359  0.196686  0.134005
    H   H120  0.036676  0.336515  0.227455  0.099378
    C   C201  0.920511  0.582962  0.286894  0.089044
    C   C202  0.946170  0.631753  0.305170  0.056145
    C   C203  0.908393  0.672477  0.322964  -0.457665
    C   C204  0.844693  0.665067  0.322687  0.491936
    O   O57   0.809572  0.706251  0.340478  -0.326997
    C   C205  0.745858  0.703975  0.342214  0.045456
    C   C206  0.818890  0.615923  0.304299  -0.297676
    C   C207  0.856838  0.575170  0.286577  -0.125400
    H   H121  0.995996  0.638285  0.305422  0.064375
    H   H122  0.928829  0.710648  0.337218  0.169713
    H   H123  0.728998  0.743133  0.358417  0.073981
    H   H124  0.730837  0.659708  0.354404  0.028030
    H   H125  0.725724  0.708637  0.315797  0.026501
    H   H126  0.769359  0.607985  0.303314  0.134003
    H   H127  0.836515  0.536676  0.272545  0.099377
    C   C208  0.417038  0.920511  0.286894  0.089070
    C   C209  0.368248  0.946169  0.305170  0.056132
    C   C210  0.327523  0.908393  0.322964  -0.457655
    C   C211  0.334933  0.844693  0.322687  0.491913
    O   O58   0.293750  0.809572  0.340478  -0.326981
    C   C212  0.296026  0.745858  0.342214  0.045443
    C   C213  0.384078  0.818890  0.304299  -0.297654
    C   C214  0.424830  0.856838  0.286577  -0.125423
    H   H128  0.361716  0.995996  0.305422  0.064371
    H   H129  0.289352  0.928829  0.337218  0.169713
    H   H130  0.256867  0.728998  0.358417  0.073979
    H   H131  0.340292  0.730837  0.354404  0.028040
    H   H132  0.291363  0.725724  0.315797  0.026505
    H   H133  0.392015  0.769359  0.303314  0.133998
    H   H134  0.463324  0.836515  0.272545  0.099379
    C   C215  0.079489  0.417038  0.286894  0.089037
    C   C216  0.053831  0.368248  0.305170  0.056163
    C   C217  0.091607  0.327523  0.322964  -0.457667
    C   C218  0.155307  0.334933  0.322687  0.491924
    O   O59   0.190428  0.293750  0.340478  -0.326983
    C   C219  0.254142  0.296026  0.342214  0.045435
    C   C220  0.181111  0.384078  0.304299  -0.297687
    C   C221  0.143162  0.424831  0.286577  -0.125403
    H   H135  0.004005  0.361716  0.305422  0.064365
    H   H136  0.071171  0.289353  0.337218  0.169718
    H   H137  0.271002  0.256867  0.358417  0.073981
    H   H138  0.269163  0.340292  0.354404  0.028044
    H   H139  0.274276  0.291363  0.315797  0.026510
    H   H140  0.230641  0.392015  0.303314  0.134010
    H   H141  0.163485  0.463325  0.272545  0.099382
    C   C222  0.582962  0.079489  0.286894  0.089031
    C   C223  0.631752  0.053831  0.305170  0.056135
    C   C224  0.672477  0.091607  0.322964  -0.457662
    C   C225  0.665067  0.155307  0.322687  0.491934
    O   O60   0.706250  0.190428  0.340478  -0.326990
    C   C226  0.703974  0.254142  0.342214  0.045438
    C   C227  0.615922  0.181110  0.304299  -0.297694
    C   C228  0.575170  0.143162  0.286577  -0.125367
    H   H142  0.638284  0.004005  0.305422  0.064365
    H   H143  0.710648  0.071171  0.337218  0.169717
    H   H144  0.743133  0.271002  0.358417  0.073980
    H   H145  0.659708  0.269163  0.354404  0.028045
    H   H146  0.708637  0.274276  0.315797  0.026509
    H   H147  0.607985  0.230641  0.303314  0.134002
    H   H148  0.536676  0.163485  0.272545  0.099374
    C   C229  0.920511  0.417038  0.713106  0.089072
    C   C230  0.946170  0.368247  0.694830  0.056121
    C   C231  0.908393  0.327522  0.677036  -0.457650
    C   C232  0.844693  0.334933  0.677313  0.491915
    O   O61   0.809572  0.293749  0.659522  -0.326983
    C   C233  0.745858  0.296025  0.657786  0.045436
    C   C234  0.818890  0.384077  0.695701  -0.297655
    C   C235  0.856838  0.424830  0.713423  -0.125426
    H   H149  0.995996  0.361715  0.694578  0.064377
    H   H150  0.928829  0.289352  0.662782  0.169716
    H   H151  0.728999  0.256867  0.641583  0.073985
    H   H152  0.730838  0.340292  0.645596  0.028033
    H   H153  0.725724  0.291363  0.684203  0.026508
    H   H154  0.769359  0.392015  0.696686  0.134000
    H   H155  0.836515  0.463324  0.727455  0.099385
    C   C236  0.417038  0.079489  0.713106  0.089063
    C   C237  0.368248  0.053831  0.694830  0.056150
    C   C238  0.327523  0.091607  0.677036  -0.457659
    C   C239  0.334933  0.155307  0.677313  0.491921
    O   O62   0.293750  0.190428  0.659522  -0.326982
    C   C240  0.296026  0.254142  0.657786  0.045441
    C   C241  0.384078  0.181110  0.695701  -0.297672
    C   C242  0.424830  0.143162  0.713423  -0.125409
    H   H156  0.361716  0.004004  0.694578  0.064366
    H   H157  0.289352  0.071171  0.662782  0.169713
    H   H158  0.256867  0.271002  0.641583  0.073979
    H   H159  0.340292  0.269163  0.645596  0.028040
    H   H160  0.291363  0.274276  0.684203  0.026507
    H   H161  0.392015  0.230641  0.696686  0.134002
    H   H162  0.463324  0.163485  0.727455  0.099379
    C   C243  0.079489  0.582962  0.713106  0.088886
    C   C244  0.053831  0.631752  0.694830  0.056233
    C   C245  0.091607  0.672477  0.677036  -0.457713
    C   C246  0.155307  0.665067  0.677313  0.491972
    O   O63   0.190428  0.706250  0.659522  -0.326990
    C   C247  0.254142  0.703974  0.657786  0.045431
    C   C248  0.181110  0.615922  0.695701  -0.297738
    C   C249  0.143162  0.575169  0.713423  -0.125282
    H   H163  0.004005  0.638284  0.694578  0.064352
    H   H164  0.071171  0.710647  0.662782  0.169724
    H   H165  0.271002  0.743133  0.641583  0.073981
    H   H166  0.269163  0.659708  0.645596  0.028047
    H   H167  0.274276  0.708637  0.684203  0.026512
    H   H168  0.230641  0.607985  0.696686  0.133996
    H   H169  0.163485  0.536676  0.727455  0.099394
    C   C250  0.582962  0.920511  0.713106  0.089047
    C   C251  0.631752  0.946170  0.694830  0.056157
    C   C252  0.672477  0.908393  0.677036  -0.457674
    C   C253  0.665067  0.844693  0.677313  0.491939
    O   O64   0.706251  0.809572  0.659522  -0.326995
    C   C254  0.703975  0.745858  0.657786  0.045458
    C   C255  0.615923  0.818890  0.695701  -0.297675
    C   C256  0.575170  0.856838  0.713423  -0.125401
    H   H170  0.638284  0.995996  0.694578  0.064371
    H   H171  0.710648  0.928829  0.662782  0.169714
    H   H172  0.743133  0.728998  0.641583  0.073980
    H   H173  0.659708  0.730837  0.645596  0.028029
    H   H174  0.708637  0.725724  0.684203  0.026501
    H   H175  0.607985  0.769359  0.696686  0.134003
    H   H176  0.536676  0.836515  0.727455  0.099375
