# Generated by REPEAT Assigner based on pymatgen
data_DB0-m2_o1_o3_f0_nbo.sym.9
_audit_creation_date              2022-05-24
_audit_creation_method            REPEAT_Assigner
_cell_length_a                    21.523334
_cell_length_b                    21.523341
_cell_length_c                    38.680609
_cell_angle_alpha                 90.000000
_cell_angle_beta                  90.000000
_cell_angle_gamma                 90.000000
_cell_volume                      17918.949690
_symmetry_space_group_name_H-M    P1
_symmetry_Int_Tables_number       1
loop_
    _symmetry_equiv_pos_site_id
    _symmetry_equiv_pos_as_xyz
    1  x,y,z
loop_
    _atom_site_type_symbol
    _atom_site_label
    _atom_site_fract_x
    _atom_site_fract_y
    _atom_site_fract_z
    _atom_type_partial_charge
    C   C1    0.617903  0.000000  0.500000  0.883127
    C   C2    0.000000  0.500000  0.565926  0.823027
    C   C3    0.447338  0.781428  0.990110  0.361643
    C   C4    0.218572  0.552660  0.009892  0.361714
    C   C5    0.552662  0.781428  0.009890  0.361390
    C   C6    0.781428  0.447340  0.009892  0.361437
    C   C7    0.447338  0.218572  0.009890  0.361604
    C   C8    0.782619  0.947770  0.489766  0.128053
    C   C9    0.052230  0.782619  0.489767  0.128013
    C   C10   0.217381  0.052229  0.489766  0.128179
    C   C11   0.947770  0.217381  0.489767  0.128230
    C   C12   0.782619  0.052230  0.510234  0.128082
    C   C13   0.500000  0.000000  0.434074  0.823085
    C   C14   0.052230  0.217381  0.510233  0.128423
    C   C15   0.217381  0.947770  0.510234  0.128185
    C   C16   0.947770  0.782619  0.510233  0.127899
    C   C17   0.282619  0.447771  0.989765  0.128079
    C   C18   0.552231  0.282619  0.989768  0.128181
    C   C19   0.717381  0.552229  0.989765  0.128015
    C   C20   0.447769  0.717381  0.989768  0.128044
    C   C21   0.282619  0.552229  0.010235  0.127950
    C   C22   0.552231  0.717381  0.010232  0.128122
    C   C23   0.717381  0.447771  0.010235  0.128209
    C   C24   0.000000  0.500000  0.434074  0.822363
    C   C25   0.447769  0.282619  0.010232  0.128186
    C   C26   0.814611  0.000000  0.500000  -0.312785
    C   C27   0.000000  0.814611  0.500000  -0.312655
    C   C28   0.185389  0.000000  0.500000  -0.313021
    C   C29   0.000000  0.185389  0.500000  -0.313149
    C   C30   0.314611  0.500000  0.000000  -0.312898
    C   C31   0.500000  0.314611  0.000000  -0.313024
    C   C32   0.685389  0.500000  0.000000  -0.312747
    C   C33   0.500000  0.685389  0.000000  -0.312730
    C   C34   0.686077  0.000000  0.500000  -0.500667
    C   C35   0.000000  0.500000  0.065926  0.822736
    C   C36   0.000000  0.686077  0.500000  -0.500765
    C   C37   0.313922  0.000000  0.500000  -0.500767
    C   C38   0.000000  0.313923  0.500000  -0.500653
    C   C39   0.186078  0.500000  0.000000  -0.501044
    C   C40   0.500000  0.186078  0.000000  -0.500770
    C   C41   0.813923  0.500000  0.000000  -0.500753
    C   C42   0.500000  0.813923  0.000000  -0.500844
    C   C43   0.000000  0.117699  0.500000  0.995051
    C   C44   0.882301  0.000000  0.500000  0.995019
    C   C45   0.000000  0.882301  0.500000  0.994915
    C   C46   0.500000  0.000000  0.065926  0.823020
    C   C47   0.117699  0.000000  0.500000  0.995012
    C   C48   0.500000  0.617699  0.000000  0.994866
    C   C49   0.382302  0.500000  0.000000  0.994885
    C   C50   0.500000  0.382301  0.000000  0.994908
    C   C51   0.617699  0.500000  0.000000  0.994992
    C   C52   0.000000  0.500000  0.934074  0.823176
    C   C53   0.500000  0.000000  0.934074  0.822791
    C   C54   0.445470  0.989156  0.877281  0.383248
    C   C55   0.010834  0.445468  0.877281  0.384407
    C   C56   0.554531  0.010844  0.877281  0.383254
    C   C57   0.000000  0.617903  0.500000  0.883192
    C   C58   0.989166  0.554532  0.877281  0.384311
    C   C59   0.445469  0.010840  0.122719  0.384456
    C   C60   0.010845  0.554530  0.122719  0.383096
    C   C61   0.554531  0.989160  0.122719  0.384252
    C   C62   0.989156  0.445470  0.122719  0.383220
    C   C63   0.945471  0.489150  0.377280  0.381310
    C   C64   0.510854  0.945472  0.377280  0.383365
    C   C65   0.054529  0.510850  0.377280  0.381568
    C   C66   0.489145  0.054528  0.377280  0.383556
    C   C67   0.945473  0.510860  0.622720  0.383473
    C   C68   0.382097  0.000000  0.500000  0.883170
    C   C69   0.510850  0.054529  0.622720  0.381545
    C   C70   0.054527  0.489140  0.622720  0.383509
    C   C71   0.489150  0.945471  0.622720  0.381500
    C   C72   0.445728  0.989448  0.841639  0.288984
    C   C73   0.010542  0.445726  0.841639  0.287802
    C   C74   0.554272  0.010552  0.841639  0.289007
    C   C75   0.989458  0.554274  0.841639  0.287823
    C   C76   0.445727  0.010547  0.158361  0.287729
    C   C77   0.010552  0.554272  0.158361  0.289045
    C   C78   0.554273  0.989453  0.158361  0.287745
    C   C79   0.000000  0.382097  0.500000  0.883205
    C   C80   0.989448  0.445728  0.158361  0.288972
    C   C81   0.945729  0.489443  0.341639  0.291098
    C   C82   0.510562  0.945730  0.341639  0.289635
    C   C83   0.054271  0.510557  0.341639  0.291042
    C   C84   0.489438  0.054270  0.341639  0.289596
    C   C85   0.945731  0.510567  0.658361  0.289595
    C   C86   0.510557  0.054271  0.658361  0.291023
    C   C87   0.054269  0.489433  0.658361  0.289568
    C   C88   0.489443  0.945729  0.658361  0.290963
    C   C89   0.500000  0.000000  0.823657  -0.593648
    C   C90   0.117903  0.500000  0.000000  0.883439
    C   C91   0.000000  0.500000  0.823657  -0.592412
    C   C92   0.500000  0.000000  0.176343  -0.592350
    C   C93   0.000000  0.500000  0.176343  -0.593675
    C   C94   0.000000  0.500000  0.323657  -0.595858
    C   C95   0.500000  0.000000  0.323657  -0.594800
    C   C96   0.000000  0.500000  0.676343  -0.594819
    C   C97   0.500000  0.000000  0.676343  -0.595830
    C   C98   0.500000  0.000000  0.895738  -0.562978
    C   C99   0.000000  0.500000  0.895738  -0.564098
    C   C100  0.500000  0.000000  0.104262  -0.563965
    C   C101  0.500000  0.117903  0.000000  0.883284
    C   C102  0.000000  0.500000  0.104262  -0.562850
    C   C103  0.000000  0.500000  0.395738  -0.561247
    C   C104  0.500000  0.000000  0.395738  -0.563626
    C   C105  0.000000  0.500000  0.604262  -0.563594
    C   C106  0.500000  0.000000  0.604262  -0.561335
    C   C107  0.460780  0.039156  0.767812  -0.335465
    C   C108  0.960837  0.460787  0.767812  -0.334776
    C   C109  0.539220  0.960844  0.767812  -0.335508
    C   C110  0.039163  0.539213  0.767812  -0.334798
    C   C111  0.460783  0.960840  0.232188  -0.335369
    C   C112  0.882097  0.500000  0.000000  0.883247
    C   C113  0.960844  0.539220  0.232188  -0.335530
    C   C114  0.539217  0.039160  0.232188  -0.335327
    C   C115  0.039156  0.460780  0.232188  -0.335461
    C   C116  0.960776  0.539153  0.267811  -0.335664
    C   C117  0.460851  0.960773  0.267811  -0.335795
    C   C118  0.039224  0.460848  0.267811  -0.335763
    C   C119  0.539149  0.039227  0.267811  -0.335841
    C   C120  0.960769  0.460855  0.732189  -0.336392
    C   C121  0.460848  0.039224  0.732189  -0.335812
    C   C122  0.039231  0.539145  0.732189  -0.336387
    C   C123  0.500000  0.882097  0.000000  0.883392
    C   C124  0.539153  0.960776  0.732189  -0.335659
    C   C125  0.500000  0.000000  0.714218  0.589661
    C   C126  0.000000  0.500000  0.714218  0.590278
    C   C127  0.500000  0.000000  0.285782  0.589769
    C   C128  0.000000  0.500000  0.285782  0.589627
    C   C129  0.000000  0.500000  0.214218  0.588864
    C   C130  0.500000  0.000000  0.214218  0.588426
    C   C131  0.000000  0.500000  0.785782  0.587974
    C   C132  0.500000  0.000000  0.785782  0.588854
    C   C133  0.718572  0.947339  0.490109  0.361462
    C   C134  0.500000  0.000000  0.565926  0.822341
    C   C135  0.052661  0.718572  0.490109  0.361652
    C   C136  0.281428  0.052661  0.490109  0.361522
    C   C137  0.947339  0.281428  0.490109  0.361396
    C   C138  0.718572  0.052661  0.509891  0.361474
    C   C139  0.052661  0.281428  0.509891  0.361358
    C   C140  0.281428  0.947339  0.509891  0.361502
    C   C141  0.947339  0.718572  0.509891  0.361565
    C   C142  0.218572  0.447340  0.990107  0.361763
    C   C143  0.552662  0.218572  0.990110  0.361436
    C   C144  0.781428  0.552660  0.990107  0.361450
    Cu  Cu1   0.500000  0.060675  0.500000  0.909018
    Cu  Cu2   0.000000  0.000000  0.533718  0.939642
    Cu  Cu3   0.500000  0.500000  0.966282  0.939480
    Cu  Cu4   0.500000  0.500000  0.033718  0.939515
    Cu  Cu5   0.939325  0.500000  0.500000  0.909654
    Cu  Cu6   0.500000  0.939325  0.500000  0.909021
    Cu  Cu7   0.060675  0.500000  0.500000  0.909629
    Cu  Cu8   0.000000  0.560675  0.000000  0.909107
    Cu  Cu9   0.439325  0.000000  0.000000  0.909673
    Cu  Cu10  0.000000  0.439325  0.000000  0.909045
    Cu  Cu11  0.560675  0.000000  0.000000  0.909736
    Cu  Cu12  0.000000  0.000000  0.466282  0.939609
    H   H1    0.430273  0.070439  0.781581  0.204822
    H   H2    0.429573  0.930260  0.281581  0.204788
    H   H3    0.069734  0.429567  0.281581  0.204764
    H   H4    0.570427  0.069740  0.281581  0.204788
    H   H5    0.930253  0.429580  0.718419  0.204887
    H   H6    0.429567  0.069734  0.718419  0.204794
    H   H7    0.069747  0.570420  0.718419  0.204890
    H   H8    0.570433  0.930266  0.718419  0.204779
    H   H9    0.386485  0.932428  0.894134  0.341401
    H   H10   0.067550  0.386471  0.894134  0.341348
    H   H11   0.613515  0.067572  0.894134  0.341411
    H   H12   0.929548  0.430286  0.781581  0.204738
    H   H13   0.932451  0.613529  0.894134  0.341287
    H   H14   0.386478  0.067561  0.105866  0.341358
    H   H15   0.067572  0.613515  0.105866  0.341481
    H   H16   0.613522  0.932439  0.105866  0.341335
    H   H17   0.932428  0.386485  0.105866  0.341263
    H   H18   0.886492  0.432416  0.394134  0.341506
    H   H19   0.567594  0.886499  0.394135  0.341383
    H   H20   0.113507  0.567584  0.394134  0.341484
    H   H21   0.432406  0.113501  0.394135  0.341497
    H   H22   0.886507  0.567606  0.605865  0.341450
    H   H23   0.569727  0.929561  0.781581  0.204821
    H   H24   0.567584  0.113508  0.605865  0.341453
    H   H25   0.113493  0.432393  0.605865  0.341463
    H   H26   0.432416  0.886492  0.605866  0.341494
    H   H27   0.392052  0.931440  0.821070  0.338453
    H   H28   0.068540  0.392039  0.821070  0.338550
    H   H29   0.607949  0.068560  0.821070  0.338400
    H   H30   0.931460  0.607962  0.821070  0.338558
    H   H31   0.392046  0.068550  0.178930  0.338533
    H   H32   0.068560  0.607948  0.178930  0.338463
    H   H33   0.607955  0.931449  0.178930  0.338551
    H   H34   0.070452  0.569715  0.781581  0.204750
    H   H35   0.931440  0.392052  0.178930  0.338461
    H   H36   0.892058  0.431429  0.321070  0.338175
    H   H37   0.568580  0.892064  0.321070  0.338209
    H   H38   0.107942  0.568571  0.321070  0.338186
    H   H39   0.431420  0.107936  0.321070  0.338212
    H   H40   0.892071  0.568591  0.678930  0.338220
    H   H41   0.568571  0.107942  0.678930  0.338228
    H   H42   0.107929  0.431409  0.678930  0.338224
    H   H43   0.431429  0.892058  0.678930  0.338209
    H   H44   0.688529  0.867144  0.499435  0.380558
    H   H45   0.430279  0.929555  0.218419  0.204842
    H   H46   0.132856  0.688529  0.499437  0.380533
    H   H47   0.311471  0.132856  0.499435  0.380536
    H   H48   0.867144  0.311471  0.499437  0.380575
    H   H49   0.688529  0.132856  0.500564  0.380566
    H   H50   0.132856  0.311471  0.500563  0.380551
    H   H51   0.311471  0.867144  0.500565  0.380525
    H   H52   0.867144  0.688529  0.500563  0.380564
    H   H53   0.188529  0.367145  0.999433  0.380499
    H   H54   0.632856  0.188530  0.999440  0.380591
    H   H55   0.811471  0.632856  0.999433  0.380571
    H   H56   0.929561  0.569727  0.218419  0.204832
    H   H57   0.367144  0.811471  0.999440  0.380540
    H   H58   0.188529  0.632856  0.000567  0.380537
    H   H59   0.632856  0.811471  0.000560  0.380593
    H   H60   0.811471  0.367144  0.000567  0.380526
    H   H61   0.367144  0.188530  0.000560  0.380538
    H   H62   0.819302  0.901968  0.453848  0.365386
    H   H63   0.098033  0.819302  0.453849  0.365386
    H   H64   0.180698  0.098032  0.453847  0.365422
    H   H65   0.901967  0.180698  0.453848  0.365412
    H   H66   0.819302  0.098032  0.546152  0.365419
    H   H67   0.569721  0.070445  0.218419  0.204839
    H   H68   0.098033  0.180698  0.546151  0.365419
    H   H69   0.180698  0.901968  0.546152  0.365410
    H   H70   0.901966  0.819302  0.546151  0.365388
    H   H71   0.319302  0.401972  0.953845  0.365404
    H   H72   0.598037  0.319303  0.953851  0.365366
    H   H73   0.680698  0.598029  0.953845  0.365411
    H   H74   0.401963  0.680698  0.953851  0.365376
    H   H75   0.319302  0.598029  0.046155  0.365396
    H   H76   0.598037  0.680698  0.046149  0.365386
    H   H77   0.680698  0.401971  0.046155  0.365443
    H   H78   0.070439  0.430273  0.218419  0.204837
    H   H79   0.401963  0.319303  0.046149  0.365378
    H   H80   0.930266  0.570433  0.281581  0.204777
    O   O1    0.588654  0.051284  0.490695  -0.606507
    O   O2    0.448716  0.088654  0.990695  -0.606302
    O   O3    0.896308  0.185587  0.479102  -0.460124
    O   O4    0.814413  0.103692  0.520899  -0.460138
    O   O5    0.103692  0.185587  0.520898  -0.460229
    O   O6    0.185587  0.896308  0.520899  -0.460134
    O   O7    0.896307  0.814413  0.520898  -0.459998
    O   O8    0.314413  0.396310  0.979099  -0.460151
    O   O9    0.603694  0.314413  0.979105  -0.460040
    O   O10   0.685587  0.603690  0.979099  -0.460128
    O   O11   0.396306  0.685587  0.979105  -0.460066
    O   O12   0.314413  0.603691  0.020901  -0.460049
    O   O13   0.911347  0.448716  0.990695  -0.606513
    O   O14   0.603694  0.685587  0.020895  -0.460072
    O   O15   0.685587  0.396310  0.020901  -0.460268
    O   O16   0.396306  0.314413  0.020895  -0.460081
    O   O17   0.551284  0.911346  0.990695  -0.606323
    O   O18   0.088654  0.448716  0.009305  -0.606450
    O   O19   0.448716  0.911346  0.009305  -0.606333
    O   O20   0.911346  0.551284  0.009305  -0.606499
    O   O21   0.551284  0.088654  0.009305  -0.606339
    O   O22   0.516823  0.051109  0.549418  -0.554795
    O   O23   0.948891  0.516823  0.549418  -0.554698
    O   O24   0.483176  0.948891  0.549418  -0.554729
    O   O25   0.948716  0.588654  0.490695  -0.606327
    O   O26   0.051109  0.483177  0.549418  -0.554730
    O   O27   0.516823  0.948891  0.450582  -0.554962
    O   O28   0.948891  0.483176  0.450581  -0.554625
    O   O29   0.483176  0.051109  0.450582  -0.554853
    O   O30   0.051109  0.516823  0.450581  -0.554582
    O   O31   0.016824  0.551109  0.049418  -0.554916
    O   O32   0.448891  0.016824  0.049418  -0.554810
    O   O33   0.983177  0.448891  0.049418  -0.554939
    O   O34   0.551109  0.983176  0.049418  -0.554926
    O   O35   0.016824  0.448891  0.950581  -0.555008
    O   O36   0.411346  0.948716  0.490695  -0.606431
    O   O37   0.448891  0.983176  0.950582  -0.554739
    O   O38   0.983177  0.551109  0.950582  -0.555085
    O   O39   0.551109  0.016824  0.950582  -0.554787
    O   O40   0.017534  0.088734  0.471534  -0.663651
    O   O41   0.911265  0.017534  0.471534  -0.663675
    O   O42   0.982466  0.911265  0.471534  -0.663635
    O   O43   0.088734  0.982466  0.471534  -0.663644
    O   O44   0.017534  0.911265  0.528466  -0.663668
    O   O45   0.911265  0.982466  0.528466  -0.663683
    O   O46   0.982466  0.088734  0.528466  -0.663653
    O   O47   0.051284  0.411346  0.490695  -0.606241
    O   O48   0.088734  0.017534  0.528466  -0.663661
    O   O49   0.517534  0.588735  0.971534  -0.663620
    O   O50   0.411266  0.517534  0.971534  -0.663601
    O   O51   0.482466  0.411266  0.971534  -0.663601
    O   O52   0.588735  0.482466  0.971534  -0.663662
    O   O53   0.517534  0.411266  0.028466  -0.663629
    O   O54   0.411266  0.482466  0.028466  -0.663641
    O   O55   0.482466  0.588735  0.028466  -0.663656
    O   O56   0.588735  0.517534  0.028466  -0.663684
    O   O57   0.390345  0.978273  0.893725  -0.483210
    O   O58   0.588654  0.948716  0.509305  -0.606445
    O   O59   0.021706  0.390341  0.893725  -0.483263
    O   O60   0.609655  0.021727  0.893725  -0.483184
    O   O61   0.978294  0.609659  0.893725  -0.483192
    O   O62   0.390344  0.021717  0.106275  -0.483337
    O   O63   0.021728  0.609655  0.106275  -0.483271
    O   O64   0.609657  0.978283  0.106275  -0.483139
    O   O65   0.978273  0.390345  0.106275  -0.483062
    O   O66   0.890347  0.478261  0.393725  -0.483045
    O   O67   0.521749  0.890349  0.393725  -0.483254
    O   O68   0.109652  0.521739  0.393725  -0.483216
    O   O69   0.948716  0.411346  0.509305  -0.606344
    O   O70   0.478251  0.109650  0.393725  -0.483534
    O   O71   0.890352  0.521761  0.606275  -0.483387
    O   O72   0.521739  0.109652  0.606275  -0.483095
    O   O73   0.109648  0.478239  0.606275  -0.483398
    O   O74   0.478261  0.890348  0.606275  -0.483212
    O   O75   0.391878  0.977087  0.824233  -0.513049
    O   O76   0.022893  0.391874  0.824233  -0.513044
    O   O77   0.608122  0.022913  0.824233  -0.513001
    O   O78   0.977107  0.608126  0.824233  -0.513034
    O   O79   0.391876  0.022903  0.175767  -0.512989
    O   O80   0.411346  0.051284  0.509305  -0.606392
    O   O81   0.022913  0.608122  0.175767  -0.513042
    O   O82   0.608124  0.977097  0.175767  -0.513001
    O   O83   0.977087  0.391878  0.175767  -0.513063
    O   O84   0.891881  0.477077  0.324232  -0.513057
    O   O85   0.522933  0.891883  0.324232  -0.512939
    O   O86   0.108119  0.522923  0.324232  -0.513033
    O   O87   0.477067  0.108117  0.324232  -0.512926
    O   O88   0.891885  0.522944  0.675768  -0.512947
    O   O89   0.522923  0.108119  0.675767  -0.513100
    O   O90   0.108115  0.477056  0.675768  -0.512951
    O   O91   0.051284  0.588654  0.509305  -0.606322
    O   O92   0.477077  0.891881  0.675768  -0.513017
    O   O93   0.687788  0.895370  0.479225  -0.525075
    O   O94   0.104630  0.687788  0.479226  -0.525153
    O   O95   0.312212  0.104630  0.479225  -0.525104
    O   O96   0.895369  0.312212  0.479226  -0.525068
    O   O97   0.687788  0.104630  0.520775  -0.525101
    O   O98   0.104631  0.312212  0.520774  -0.525097
    O   O99   0.312212  0.895370  0.520775  -0.525084
    O   O100  0.895369  0.687788  0.520774  -0.525104
    O   O101  0.187788  0.395372  0.979223  -0.525152
    O   O102  0.088654  0.551284  0.990695  -0.606483
    O   O103  0.604633  0.187788  0.979229  -0.525100
    O   O104  0.812212  0.604629  0.979223  -0.525030
    O   O105  0.395368  0.812212  0.979229  -0.525155
    O   O106  0.187788  0.604629  0.020777  -0.525134
    O   O107  0.604633  0.812212  0.020771  -0.525071
    O   O108  0.812212  0.395371  0.020777  -0.525049
    O   O109  0.395368  0.187788  0.020771  -0.525166
    O   O110  0.814413  0.896308  0.479101  -0.460081
    O   O111  0.103692  0.814413  0.479102  -0.460081
    O   O112  0.185587  0.103692  0.479101  -0.460171
