# Generated by REPEAT Assigner based on pymatgen
data_DB0-m2_o1_o3_f0_pcu.sym.9_sqe
_audit_creation_date              2022-05-24
_audit_creation_method            REPEAT_Assigner
_cell_length_a                    10.851565
_cell_length_b                    9.399895
_cell_length_c                    19.386880
_cell_angle_alpha                 90.000000
_cell_angle_beta                  89.995056
_cell_angle_gamma                 90.000000
_cell_volume                      1977.530949
_symmetry_space_group_name_H-M    P1
_symmetry_Int_Tables_number       1
loop_
    _symmetry_equiv_pos_site_id
    _symmetry_equiv_pos_as_xyz
    1  x,y,z
loop_
    _atom_site_type_symbol
    _atom_site_label
    _atom_site_fract_x
    _atom_site_fract_y
    _atom_site_fract_z
    _atom_type_partial_charge
    O   O1   0.321728  0.621866  0.497875  -0.569398
    O   O2   0.680625  0.378199  0.497754  -0.555597
    O   O3   0.679874  0.622274  0.498243  -0.576568
    O   O4   0.322459  0.377621  0.497752  -0.593897
    C   C1   0.873242  0.500172  0.498987  0.053689
    C   C2   0.128919  0.499650  0.498834  0.027485
    C   C3   0.264180  0.499734  0.499397  0.590956
    C   C4   0.738126  0.500189  0.499644  0.554999
    O   O5   0.496695  0.622703  0.399991  -0.534644
    O   O6   0.505621  0.377470  0.600136  -0.548476
    O   O7   0.495988  0.621097  0.600455  -0.542562
    O   O8   0.505762  0.378530  0.399670  -0.527940
    C   C5   0.501415  0.500625  0.367234  0.875013
    C   C6   0.500750  0.499204  0.633081  0.846274
    Cu  Cu1  0.500366  0.642142  0.500115  0.763928
    Cu  Cu2  0.502070  0.357781  0.499887  0.773298
    H   H1   0.364139  0.130560  0.423461  0.116496
    H   H2   0.643377  0.868802  0.573473  0.111236
    H   H3   0.644147  0.129941  0.573371  0.121264
    H   H4   0.362630  0.870197  0.423954  0.132135
    C   C7   0.064447  0.372923  0.497399  -0.114146
    C   C8   0.937413  0.626822  0.500440  -0.127485
    C   C9   0.937352  0.373030  0.497443  -0.122479
    C   C10  0.064465  0.626742  0.500371  -0.111138
    H   H5   0.112305  0.272146  0.496261  0.116827
    H   H6   0.889341  0.727418  0.501872  0.119458
    H   H7   0.889340  0.272284  0.496347  0.113435
    H   H8   0.112136  0.727600  0.501796  0.111736
    C   C11  0.514538  0.373141  0.746092  0.273571
    C   C12  0.485888  0.626484  0.254590  0.286626
    C   C13  0.515606  0.374503  0.254812  0.302256
    C   C14  0.484849  0.625085  0.745802  0.291224
    C   C15  0.514668  0.374007  0.817278  0.197781
    C   C16  0.485741  0.625689  0.183476  0.196770
    C   C17  0.515862  0.374625  0.183722  0.188540
    C   C18  0.484703  0.625056  0.816938  0.188671
    C   C19  0.499832  0.499790  0.853131  -0.302392
    C   C20  0.500847  0.500004  0.147612  -0.298839
    C   C21  0.425350  0.073507  0.457643  0.011697
    C   C22  0.580262  0.926360  0.540525  0.005901
    C   C23  0.580503  0.073083  0.540602  -0.006382
    C   C24  0.424764  0.926877  0.457758  -0.027193
    C   C25  0.499925  0.498947  0.709355  -0.449562
    C   C26  0.501088  0.500718  0.291163  -0.484613
    C   C27  0.591849  0.429682  0.964772  -0.230235
    C   C28  0.409175  0.570229  0.036126  -0.227004
    C   C29  0.591944  0.429374  0.035910  -0.219103
    C   C30  0.409073  0.570639  0.964998  -0.220530
    H   H9   0.665603  0.376744  0.937448  0.154425
    H   H10  0.335373  0.622957  0.063464  0.153881
    H   H11  0.665777  0.376227  0.063033  0.156873
    H   H12  0.335067  0.623559  0.937892  0.156364
    N   N1   0.500159  0.854867  0.500610  -0.016345
    N   N2   0.501929  0.145027  0.499518  -0.030537
    C   C31  0.500652  0.499762  0.071983  0.353216
    C   C32  0.500336  0.500208  0.928876  0.358180
    F   F1   0.529351  0.246775  0.713456  -0.159807
    F   F2   0.470681  0.752772  0.287276  -0.164290
    F   F3   0.530173  0.248343  0.287667  -0.170549
    F   F4   0.470129  0.751122  0.712912  -0.166204
    F   F5   0.525402  0.248992  0.851662  -0.151307
    F   F6   0.475158  0.750857  0.149285  -0.151870
    F   F7   0.526665  0.249148  0.149817  -0.151872
    F   F8   0.474119  0.750461  0.850901  -0.151239
