# Generated by REPEAT Assigner based on pymatgen
data_DB0-m2_o1_o3_f0_nbo.sym.98
_audit_creation_date              2022-05-24
_audit_creation_method            REPEAT_Assigner
_cell_length_a                    21.463602
_cell_length_b                    21.463602
_cell_length_c                    38.518070
_cell_angle_alpha                 90.000000
_cell_angle_beta                  90.000000
_cell_angle_gamma                 90.000000
_cell_volume                      17744.743478
_symmetry_space_group_name_H-M    P1
_symmetry_Int_Tables_number       1
loop_
    _symmetry_equiv_pos_site_id
    _symmetry_equiv_pos_as_xyz
    1  x,y,z
loop_
    _atom_site_type_symbol
    _atom_site_label
    _atom_site_fract_x
    _atom_site_fract_y
    _atom_site_fract_z
    _atom_type_partial_charge
    O   O1    0.589054  0.051787  0.491146  -0.589017
    O   O2    0.948213  0.589054  0.491146  -0.588996
    O   O3    0.410946  0.948213  0.491146  -0.589010
    O   O4    0.051787  0.410946  0.491146  -0.589031
    O   O5    0.589054  0.948213  0.508854  -0.588995
    O   O6    0.948213  0.410946  0.508854  -0.589008
    O   O7    0.410946  0.051787  0.508854  -0.589021
    O   O8    0.051787  0.589054  0.508854  -0.589009
    O   O9    0.089054  0.551787  0.991146  -0.589024
    O   O10   0.448213  0.089053  0.991146  -0.589027
    O   O11   0.910946  0.448213  0.991146  -0.589021
    O   O12   0.551787  0.910946  0.991146  -0.589021
    O   O13   0.089054  0.448213  0.008854  -0.589030
    O   O14   0.448213  0.910946  0.008854  -0.589016
    O   O15   0.910946  0.551787  0.008854  -0.589011
    O   O16   0.551787  0.089053  0.008854  -0.589015
    C   C1    0.618057  0.000000  0.500000  0.581182
    C   C2    0.000000  0.618057  0.500000  0.581161
    C   C3    0.381943  0.000000  0.500000  0.581199
    C   C4    0.000000  0.381943  0.500000  0.581226
    C   C5    0.118057  0.500000  0.000000  0.581233
    C   C6    0.500000  0.118057  0.000000  0.581187
    C   C7    0.881943  0.500000  0.000000  0.581240
    C   C8    0.500000  0.881943  0.000000  0.581246
    O   O17   0.516108  0.051724  0.549718  -0.662337
    O   O18   0.948276  0.516108  0.549718  -0.662314
    O   O19   0.483892  0.948276  0.549718  -0.662315
    O   O20   0.051724  0.483892  0.549718  -0.662338
    O   O21   0.516108  0.948276  0.450282  -0.662329
    O   O22   0.948276  0.483892  0.450282  -0.662330
    O   O23   0.483892  0.051724  0.450282  -0.662348
    O   O24   0.051724  0.516108  0.450282  -0.662356
    O   O25   0.016108  0.551724  0.049718  -0.662334
    O   O26   0.448276  0.016108  0.049718  -0.662346
    O   O27   0.983892  0.448276  0.049718  -0.662345
    O   O28   0.551724  0.983892  0.049718  -0.662335
    O   O29   0.016108  0.448276  0.950282  -0.662353
    O   O30   0.448276  0.983892  0.950282  -0.662342
    O   O31   0.983892  0.551724  0.950282  -0.662332
    O   O32   0.551724  0.016108  0.950282  -0.662341
    C   C9    0.500000  0.000000  0.565936  0.996196
    C   C10   0.000000  0.500000  0.565936  0.996198
    C   C11   0.500000  0.000000  0.434064  0.996235
    C   C12   0.000000  0.500000  0.434064  0.996257
    C   C13   0.000000  0.500000  0.065936  0.996208
    C   C14   0.500000  0.000000  0.065936  0.996214
    C   C15   0.000000  0.500000  0.934064  0.996251
    C   C16   0.500000  0.000000  0.934064  0.996245
    Cu  Cu1   0.500000  0.061128  0.500000  0.976496
    Cu  Cu2   0.938872  0.500000  0.500000  0.976466
    Cu  Cu3   0.500000  0.938872  0.500000  0.976460
    Cu  Cu4   0.061128  0.500000  0.500000  0.976495
    Cu  Cu5   0.000000  0.561128  0.000000  0.976520
    Cu  Cu6   0.438872  0.000000  0.000000  0.976476
    Cu  Cu7   0.000000  0.438872  0.000000  0.976456
    Cu  Cu8   0.561128  0.000000  0.000000  0.976513
    C   C17   0.501548  0.943896  0.877849  0.274555
    C   C18   0.056104  0.501548  0.877849  0.274568
    C   C19   0.498452  0.056104  0.877849  0.274584
    C   C20   0.943896  0.498452  0.877849  0.274574
    C   C21   0.501548  0.056104  0.122151  0.274534
    C   C22   0.056104  0.498452  0.122151  0.274533
    C   C23   0.498452  0.943896  0.122151  0.274526
    C   C24   0.943896  0.501548  0.122151  0.274527
    C   C25   0.001548  0.443896  0.377849  0.274466
    C   C26   0.556104  0.001548  0.377849  0.274463
    C   C27   0.998452  0.556104  0.377849  0.274487
    C   C28   0.443896  0.998452  0.377849  0.274481
    C   C29   0.001548  0.556104  0.622151  0.274444
    C   C30   0.556104  0.998452  0.622151  0.274457
    C   C31   0.998452  0.443896  0.622151  0.274460
    C   C32   0.443896  0.001548  0.622151  0.274446
    C   C33   0.500869  0.944588  0.842025  -0.291317
    C   C34   0.055412  0.500869  0.842025  -0.291321
    C   C35   0.499131  0.055412  0.842025  -0.291340
    C   C36   0.944588  0.499131  0.842025  -0.291330
    C   C37   0.500869  0.055412  0.157976  -0.291343
    C   C38   0.055412  0.499131  0.157976  -0.291350
    C   C39   0.499131  0.944588  0.157976  -0.291335
    C   C40   0.944588  0.500869  0.157976  -0.291341
    C   C41   0.000869  0.444588  0.342025  -0.291198
    C   C42   0.555412  0.000869  0.342025  -0.291205
    C   C43   0.999131  0.555412  0.342025  -0.291116
    C   C44   0.444588  0.999131  0.342025  -0.291110
    C   C45   0.000869  0.555412  0.657976  -0.291237
    C   C46   0.555412  0.999131  0.657976  -0.291132
    C   C47   0.999131  0.444588  0.657976  -0.291125
    C   C48   0.444588  0.000869  0.657976  -0.291229
    H   H1    0.499950  0.901028  0.827989  0.125267
    H   H2    0.098972  0.499950  0.827989  0.125263
    H   H3    0.500050  0.098972  0.827989  0.125297
    H   H4    0.901028  0.500050  0.827989  0.125296
    H   H5    0.499950  0.098972  0.172011  0.125302
    H   H6    0.098972  0.500050  0.172011  0.125304
    H   H7    0.500050  0.901028  0.172011  0.125306
    H   H8    0.901028  0.499950  0.172011  0.125307
    H   H9    0.999950  0.401028  0.327989  0.125247
    H   H10   0.598972  0.999950  0.327989  0.125251
    H   H11   0.000050  0.598972  0.327989  0.125236
    H   H12   0.401028  0.000050  0.327989  0.125235
    H   H13   0.999950  0.598972  0.672011  0.125291
    H   H14   0.598972  0.000050  0.672011  0.125245
    H   H15   0.000050  0.401028  0.672011  0.125246
    H   H16   0.401028  0.999950  0.672011  0.125291
    C   C49   0.500000  0.000000  0.824031  0.075474
    C   C50   0.000000  0.500000  0.824031  0.075480
    C   C51   0.500000  0.000000  0.175970  0.075463
    C   C52   0.000000  0.500000  0.175970  0.075479
    C   C53   0.000000  0.500000  0.324031  0.075314
    C   C54   0.500000  0.000000  0.324031  0.075318
    C   C55   0.000000  0.500000  0.675970  0.075315
    C   C56   0.500000  0.000000  0.675970  0.075315
    C   C57   0.500000  0.000000  0.896074  -0.366710
    C   C58   0.000000  0.500000  0.896074  -0.366717
    C   C59   0.500000  0.000000  0.103926  -0.366647
    C   C60   0.000000  0.500000  0.103926  -0.366647
    C   C61   0.000000  0.500000  0.396074  -0.366664
    C   C62   0.500000  0.000000  0.396074  -0.366652
    C   C63   0.000000  0.500000  0.603926  -0.366611
    C   C64   0.500000  0.000000  0.603926  -0.366612
    C   C65   0.460900  0.039487  0.767888  -0.176309
    C   C66   0.960513  0.460900  0.767888  -0.176313
    C   C67   0.539100  0.960513  0.767888  -0.176340
    C   C68   0.039487  0.539100  0.767888  -0.176327
    C   C69   0.460900  0.960513  0.232112  -0.176406
    C   C70   0.960513  0.539100  0.232112  -0.176400
    C   C71   0.539100  0.039487  0.232112  -0.176382
    C   C72   0.039487  0.460900  0.232112  -0.176374
    C   C73   0.960900  0.539487  0.267888  -0.176257
    C   C74   0.460513  0.960900  0.267888  -0.176246
    C   C75   0.039100  0.460513  0.267888  -0.176298
    C   C76   0.539487  0.039100  0.267888  -0.176297
    C   C77   0.960900  0.460513  0.732112  -0.176338
    C   C78   0.460513  0.039100  0.732112  -0.176363
    C   C79   0.039100  0.539487  0.732112  -0.176351
    C   C80   0.539487  0.960900  0.732112  -0.176318
    H   H17   0.429380  0.070151  0.781555  0.123178
    H   H18   0.929849  0.429380  0.781555  0.123176
    H   H19   0.570620  0.929848  0.781555  0.123189
    H   H20   0.070151  0.570620  0.781555  0.123188
    H   H21   0.429380  0.929848  0.218445  0.123198
    H   H22   0.929849  0.570620  0.218445  0.123198
    H   H23   0.570620  0.070151  0.218445  0.123195
    H   H24   0.070151  0.429380  0.218445  0.123190
    H   H25   0.929380  0.570151  0.281555  0.123163
    H   H26   0.429849  0.929380  0.281555  0.123160
    H   H27   0.070620  0.429849  0.281555  0.123183
    H   H28   0.570151  0.070620  0.281555  0.123184
    H   H29   0.929380  0.429849  0.718445  0.123180
    H   H30   0.429849  0.070620  0.718445  0.123192
    H   H31   0.070620  0.570151  0.718445  0.123189
    H   H32   0.570151  0.929380  0.718445  0.123176
    C   C81   0.500000  0.000000  0.714024  0.149608
    C   C82   0.000000  0.500000  0.714024  0.149611
    C   C83   0.500000  0.000000  0.285977  0.149521
    C   C84   0.000000  0.500000  0.285977  0.149527
    C   C85   0.000000  0.500000  0.214024  0.149622
    C   C86   0.500000  0.000000  0.214024  0.149633
    C   C87   0.000000  0.500000  0.785977  0.149540
    C   C88   0.500000  0.000000  0.785977  0.149545
    C   C89   0.717967  0.951848  0.484478  -0.199731
    C   C90   0.048152  0.717966  0.484478  -0.199748
    C   C91   0.282033  0.048152  0.484478  -0.199741
    C   C92   0.951848  0.282033  0.484478  -0.199732
    C   C93   0.717967  0.048152  0.515522  -0.199729
    C   C94   0.048152  0.282033  0.515522  -0.199731
    C   C95   0.282033  0.951848  0.515522  -0.199730
    C   C96   0.951848  0.717966  0.515522  -0.199737
    C   C97   0.217967  0.451848  0.984478  -0.199722
    C   C98   0.548152  0.217966  0.984478  -0.199745
    C   C99   0.782033  0.548152  0.984478  -0.199726
    C   C100  0.451848  0.782033  0.984478  -0.199733
    C   C101  0.217967  0.548152  0.015522  -0.199727
    C   C102  0.548152  0.782033  0.015522  -0.199734
    C   C103  0.782033  0.451848  0.015522  -0.199719
    C   C104  0.451848  0.217966  0.015522  -0.199738
    H   H33   0.692903  0.914287  0.472059  0.120190
    H   H34   0.085713  0.692902  0.472059  0.120201
    H   H35   0.307097  0.085713  0.472059  0.120199
    H   H36   0.914287  0.307097  0.472059  0.120194
    H   H37   0.692903  0.085713  0.527941  0.120193
    H   H38   0.085713  0.307097  0.527941  0.120197
    H   H39   0.307097  0.914287  0.527941  0.120194
    H   H40   0.914287  0.692903  0.527941  0.120196
    H   H41   0.192903  0.414287  0.972059  0.120191
    H   H42   0.585713  0.192903  0.972059  0.120206
    H   H43   0.807097  0.585713  0.972059  0.120200
    H   H44   0.414287  0.807097  0.972059  0.120198
    H   H45   0.192903  0.585713  0.027941  0.120196
    H   H46   0.585713  0.807097  0.027941  0.120201
    H   H47   0.807097  0.414287  0.027941  0.120192
    H   H48   0.414287  0.192902  0.027941  0.120199
    C   C105  0.782139  0.952698  0.483663  -0.014806
    C   C106  0.047302  0.782139  0.483663  -0.014811
    C   C107  0.217861  0.047302  0.483663  -0.014816
    C   C108  0.952698  0.217861  0.483663  -0.014814
    C   C109  0.782139  0.047302  0.516337  -0.014823
    C   C110  0.047302  0.217861  0.516337  -0.014832
    C   C111  0.217861  0.952698  0.516337  -0.014821
    C   C112  0.952698  0.782139  0.516337  -0.014816
    C   C113  0.282139  0.452698  0.983663  -0.014828
    C   C114  0.547302  0.282139  0.983663  -0.014822
    C   C115  0.717861  0.547302  0.983663  -0.014811
    C   C116  0.452698  0.717861  0.983663  -0.014810
    C   C117  0.282139  0.547302  0.016337  -0.014833
    C   C118  0.547302  0.717861  0.016337  -0.014819
    C   C119  0.717861  0.452698  0.016337  -0.014822
    C   C120  0.452698  0.282139  0.016337  -0.014830
    H   H49   0.807000  0.915235  0.471026  0.098709
    H   H50   0.084765  0.806999  0.471026  0.098711
    H   H51   0.193000  0.084765  0.471026  0.098710
    H   H52   0.915235  0.193000  0.471026  0.098710
    H   H53   0.806999  0.084765  0.528974  0.098717
    H   H54   0.084765  0.193000  0.528974  0.098716
    H   H55   0.193001  0.915235  0.528974  0.098716
    H   H56   0.915235  0.806999  0.528974  0.098715
    H   H57   0.307000  0.415235  0.971026  0.098712
    H   H58   0.584765  0.306999  0.971026  0.098712
    H   H59   0.693001  0.584765  0.971026  0.098706
    H   H60   0.415235  0.693000  0.971026  0.098705
    H   H61   0.307000  0.584765  0.028974  0.098717
    H   H62   0.584765  0.693000  0.028974  0.098711
    H   H63   0.693001  0.415235  0.028974  0.098712
    H   H64   0.415235  0.306999  0.028974  0.098717
    C   C121  0.814329  0.000000  0.500000  -0.130973
    C   C122  0.000000  0.814329  0.500000  -0.130981
    C   C123  0.185671  0.000000  0.500000  -0.130944
    C   C124  0.000000  0.185671  0.500000  -0.130940
    C   C125  0.314329  0.500000  0.000000  -0.130927
    C   C126  0.500000  0.314329  0.000000  -0.130943
    C   C127  0.685671  0.500000  0.000000  -0.130934
    C   C128  0.500000  0.685671  0.000000  -0.130948
    C   C129  0.685875  0.000000  0.500000  0.222087
    C   C130  0.000000  0.685875  0.500000  0.222110
    C   C131  0.314125  0.000000  0.500000  0.222082
    C   C132  0.000000  0.314125  0.500000  0.222066
    C   C133  0.185875  0.500000  0.000000  0.222056
    C   C134  0.500000  0.185875  0.000000  0.222089
    C   C135  0.814125  0.500000  0.000000  0.222029
    C   C136  0.500000  0.814124  0.000000  0.222048
    O   O33   0.980594  0.088585  0.471723  -0.617659
    O   O34   0.911415  0.980594  0.471723  -0.617652
    O   O35   0.019406  0.911415  0.471723  -0.617655
    O   O36   0.088585  0.019406  0.471723  -0.617662
    O   O37   0.980594  0.911415  0.528277  -0.617608
    O   O38   0.911415  0.019406  0.528277  -0.617613
    O   O39   0.019406  0.088585  0.528277  -0.617616
    O   O40   0.088585  0.980594  0.528277  -0.617614
    O   O41   0.480594  0.588585  0.971723  -0.617640
    O   O42   0.411415  0.480594  0.971723  -0.617647
    O   O43   0.519406  0.411414  0.971723  -0.617644
    O   O44   0.588585  0.519406  0.971723  -0.617646
    O   O45   0.480594  0.411414  0.028277  -0.617612
    O   O46   0.411415  0.519406  0.028277  -0.617619
    O   O47   0.519406  0.588585  0.028277  -0.617604
    O   O48   0.588585  0.480594  0.028277  -0.617605
    C   C137  0.000000  0.117701  0.500000  0.770007
    C   C138  0.882299  0.000000  0.500000  0.770042
    C   C139  0.000000  0.882299  0.500000  0.770046
    C   C140  0.117701  0.000000  0.500000  0.770009
    C   C141  0.500000  0.617701  0.000000  0.769982
    C   C142  0.382299  0.500000  0.000000  0.769988
    C   C143  0.500000  0.382299  0.000000  0.770005
    C   C144  0.617701  0.500000  0.000000  0.769974
    Cu  Cu9   0.000000  0.000000  0.466336  0.967370
    Cu  Cu10  0.000000  0.000000  0.533664  0.967598
    Cu  Cu11  0.500000  0.500000  0.966336  0.967381
    Cu  Cu12  0.500000  0.500000  0.033664  0.967621
    C   C145  0.504169  0.881568  0.895536  -0.386158
    C   C146  0.565974  0.848875  0.888470  0.589687
    C   C147  0.620418  0.888198  0.900952  -0.457826
    C   C148  0.566854  0.786785  0.907284  -0.459359
    H   H65   0.465771  0.852471  0.885151  0.078643
    H   H66   0.497461  0.884353  0.923886  0.102847
    H   H67   0.571358  0.839841  0.860309  -0.076938
    H   H68   0.612831  0.902640  0.928240  0.107630
    H   H69   0.626048  0.930033  0.884363  0.075663
    H   H70   0.663875  0.860423  0.899407  0.088898
    H   H71   0.568057  0.794563  0.935700  0.094701
    H   H72   0.608787  0.760055  0.899488  0.092585
    H   H73   0.524713  0.759533  0.900456  0.080337
    C   C149  0.118432  0.504169  0.895536  -0.386187
    C   C150  0.151125  0.565973  0.888470  0.589692
    C   C151  0.111802  0.620418  0.900952  -0.457824
    C   C152  0.213215  0.566854  0.907284  -0.459370
    H   H74   0.147529  0.465770  0.885151  0.078650
    H   H75   0.115647  0.497461  0.923886  0.102850
    H   H76   0.160159  0.571358  0.860309  -0.076935
    H   H77   0.097360  0.612830  0.928240  0.107625
    H   H78   0.069967  0.626048  0.884363  0.075664
    H   H79   0.139577  0.663875  0.899407  0.088901
    H   H80   0.205437  0.568057  0.935700  0.094704
    H   H81   0.239945  0.608787  0.899488  0.092589
    H   H82   0.240467  0.524713  0.900456  0.080339
    C   C153  0.495831  0.118432  0.895536  -0.386251
    C   C154  0.434027  0.151125  0.888470  0.589701
    C   C155  0.379582  0.111802  0.900952  -0.457804
    C   C156  0.433146  0.213215  0.907284  -0.459323
    H   H83   0.534230  0.147529  0.885151  0.078656
    H   H84   0.502539  0.115647  0.923886  0.102881
    H   H85   0.428642  0.160159  0.860309  -0.076953
    H   H86   0.387170  0.097360  0.928240  0.107614
    H   H87   0.373952  0.069966  0.884363  0.075660
    H   H88   0.336125  0.139577  0.899407  0.088898
    H   H89   0.431943  0.205437  0.935700  0.094683
    H   H90   0.391214  0.239944  0.899488  0.092584
    H   H91   0.475287  0.240467  0.900456  0.080329
    C   C157  0.881568  0.495831  0.895536  -0.386219
    C   C158  0.848875  0.434026  0.888470  0.589694
    C   C159  0.888198  0.379582  0.900952  -0.457808
    C   C160  0.786785  0.433146  0.907284  -0.459322
    H   H92   0.852471  0.534229  0.885151  0.078652
    H   H93   0.884353  0.502539  0.923886  0.102871
    H   H94   0.839841  0.428642  0.860309  -0.076954
    H   H95   0.902640  0.387169  0.928240  0.107619
    H   H96   0.930034  0.373952  0.884363  0.075660
    H   H97   0.860423  0.336125  0.899407  0.088896
    H   H98   0.794563  0.431943  0.935700  0.094684
    H   H99   0.760056  0.391213  0.899488  0.092579
    H   H100  0.759533  0.475287  0.900456  0.080331
    C   C161  0.504169  0.118432  0.104464  -0.386212
    C   C162  0.565973  0.151125  0.111530  0.589707
    C   C163  0.620418  0.111802  0.099048  -0.457797
    C   C164  0.566854  0.213215  0.092716  -0.459341
    H   H101  0.465770  0.147529  0.114849  0.078649
    H   H102  0.497461  0.115647  0.076114  0.102869
    H   H103  0.571358  0.160159  0.139691  -0.076955
    H   H104  0.612830  0.097360  0.071760  0.107611
    H   H105  0.626048  0.069966  0.115637  0.075656
    H   H106  0.663875  0.139577  0.100593  0.088895
    H   H107  0.568057  0.205437  0.064300  0.094692
    H   H108  0.608787  0.239944  0.100512  0.092583
    H   H109  0.524713  0.240467  0.099544  0.080333
    C   C165  0.118432  0.495831  0.104464  -0.386182
    C   C166  0.151125  0.434026  0.111530  0.589675
    C   C167  0.111802  0.379582  0.099048  -0.457794
    C   C168  0.213215  0.433146  0.092716  -0.459310
    H   H110  0.147529  0.534229  0.114849  0.078650
    H   H111  0.115647  0.502539  0.076114  0.102851
    H   H112  0.160159  0.428642  0.139691  -0.076949
    H   H113  0.097360  0.387169  0.071760  0.107612
    H   H114  0.069966  0.373952  0.115637  0.075657
    H   H115  0.139577  0.336125  0.100593  0.088894
    H   H116  0.205437  0.431943  0.064300  0.094681
    H   H117  0.239945  0.391213  0.100512  0.092575
    H   H118  0.240467  0.475287  0.099544  0.080329
    C   C169  0.495831  0.881568  0.104464  -0.386186
    C   C170  0.434027  0.848875  0.111530  0.589660
    C   C171  0.379582  0.888198  0.099048  -0.457766
    C   C172  0.433146  0.786785  0.092716  -0.459304
    H   H119  0.534230  0.852471  0.114849  0.078647
    H   H120  0.502539  0.884353  0.076114  0.102860
    H   H121  0.428642  0.839841  0.139691  -0.076948
    H   H122  0.387169  0.902640  0.071760  0.107606
    H   H123  0.373952  0.930033  0.115637  0.075652
    H   H124  0.336125  0.860423  0.100593  0.088888
    H   H125  0.431943  0.794562  0.064300  0.094684
    H   H126  0.391213  0.760055  0.100512  0.092576
    H   H127  0.475287  0.759533  0.099544  0.080322
    C   C173  0.881568  0.504169  0.104464  -0.386196
    C   C174  0.848875  0.565973  0.111530  0.589694
    C   C175  0.888198  0.620418  0.099048  -0.457792
    C   C176  0.786785  0.566854  0.092716  -0.459331
    H   H128  0.852471  0.465770  0.114849  0.078644
    H   H129  0.884353  0.497461  0.076114  0.102866
    H   H130  0.839841  0.571358  0.139691  -0.076955
    H   H131  0.902640  0.612830  0.071760  0.107613
    H   H132  0.930034  0.626048  0.115637  0.075658
    H   H133  0.860423  0.663875  0.100593  0.088894
    H   H134  0.794563  0.568057  0.064300  0.094690
    H   H135  0.760055  0.608787  0.100512  0.092582
    H   H136  0.759533  0.524713  0.099544  0.080330
    C   C177  0.004169  0.381568  0.395536  -0.386121
    C   C178  0.065973  0.348875  0.388470  0.589673
    C   C179  0.120418  0.388198  0.400952  -0.457802
    C   C180  0.066854  0.286785  0.407284  -0.459356
    H   H137  0.965770  0.352471  0.385151  0.078635
    H   H138  0.997461  0.384353  0.423886  0.102833
    H   H139  0.071358  0.339841  0.360309  -0.076937
    H   H140  0.112830  0.402640  0.428240  0.107624
    H   H141  0.126048  0.430033  0.384363  0.075655
    H   H142  0.163875  0.360422  0.399407  0.088894
    H   H143  0.068057  0.294562  0.435700  0.094699
    H   H144  0.108787  0.260055  0.399488  0.092586
    H   H145  0.024713  0.259533  0.400456  0.080332
    C   C181  0.618432  0.004169  0.395536  -0.386128
    C   C182  0.651125  0.065973  0.388470  0.589669
    C   C183  0.611802  0.120418  0.400952  -0.457801
    C   C184  0.713215  0.066854  0.407284  -0.459351
    H   H146  0.647529  0.965770  0.385151  0.078638
    H   H147  0.615647  0.997461  0.423886  0.102838
    H   H148  0.660159  0.071358  0.360309  -0.076935
    H   H149  0.597360  0.112831  0.428240  0.107625
    H   H150  0.569966  0.126048  0.384363  0.075652
    H   H151  0.639577  0.163875  0.399407  0.088895
    H   H152  0.705437  0.068057  0.435700  0.094693
    H   H153  0.739945  0.108787  0.399488  0.092587
    H   H154  0.740467  0.024713  0.400456  0.080334
    C   C185  0.995831  0.618432  0.395536  -0.386227
    C   C186  0.934027  0.651125  0.388470  0.589671
    C   C187  0.879582  0.611802  0.400952  -0.457805
    C   C188  0.933146  0.713215  0.407284  -0.459304
    H   H155  0.034230  0.647529  0.385151  0.078646
    H   H156  0.002539  0.615647  0.423886  0.102877
    H   H157  0.928642  0.660159  0.360309  -0.076943
    H   H158  0.887169  0.597360  0.428240  0.107626
    H   H159  0.873952  0.569966  0.384363  0.075653
    H   H160  0.836125  0.639577  0.399407  0.088898
    H   H161  0.931943  0.705437  0.435700  0.094678
    H   H162  0.891213  0.739944  0.399488  0.092576
    H   H163  0.975287  0.740467  0.400456  0.080329
    C   C189  0.381568  0.995831  0.395536  -0.386199
    C   C190  0.348875  0.934026  0.388470  0.589658
    C   C191  0.388198  0.879582  0.400952  -0.457809
    C   C192  0.286785  0.933146  0.407284  -0.459294
    H   H164  0.352471  0.034230  0.385151  0.078642
    H   H165  0.384353  0.002539  0.423886  0.102866
    H   H166  0.339841  0.928642  0.360309  -0.076943
    H   H167  0.402640  0.887169  0.428240  0.107631
    H   H168  0.430034  0.873952  0.384363  0.075654
    H   H169  0.360423  0.836125  0.399407  0.088897
    H   H170  0.294563  0.931943  0.435700  0.094677
    H   H171  0.260055  0.891213  0.399488  0.092572
    H   H172  0.259533  0.975287  0.400456  0.080329
    C   C193  0.004169  0.618432  0.604464  -0.386163
    C   C194  0.065974  0.651125  0.611530  0.589691
    C   C195  0.120418  0.611802  0.599048  -0.457783
    C   C196  0.066854  0.713215  0.592716  -0.459326
    H   H173  0.965770  0.647529  0.614849  0.078640
    H   H174  0.997461  0.615647  0.576114  0.102858
    H   H175  0.071358  0.660159  0.639691  -0.076955
    H   H176  0.112831  0.597360  0.571760  0.107617
    H   H177  0.126048  0.569966  0.615637  0.075650
    H   H178  0.163875  0.639577  0.600593  0.088889
    H   H179  0.068057  0.705437  0.564300  0.094683
    H   H180  0.108787  0.739944  0.600512  0.092578
    H   H181  0.024713  0.740467  0.599544  0.080331
    C   C197  0.618432  0.995831  0.604464  -0.386190
    C   C198  0.651125  0.934026  0.611530  0.589649
    C   C199  0.611802  0.879582  0.599048  -0.457791
    C   C200  0.713215  0.933146  0.592716  -0.459287
    H   H182  0.647529  0.034230  0.614849  0.078644
    H   H183  0.615647  0.002539  0.576114  0.102863
    H   H184  0.660159  0.928642  0.639691  -0.076940
    H   H185  0.597360  0.887169  0.571760  0.107621
    H   H186  0.569967  0.873952  0.615637  0.075652
    H   H187  0.639577  0.836125  0.600593  0.088894
    H   H188  0.705437  0.931943  0.564300  0.094676
    H   H189  0.739945  0.891213  0.600512  0.092569
    H   H190  0.740467  0.975287  0.599544  0.080327
    C   C201  0.995831  0.381568  0.604464  -0.386200
    C   C202  0.934027  0.348875  0.611530  0.589654
    C   C203  0.879582  0.388198  0.599048  -0.457787
    C   C204  0.933146  0.286785  0.592716  -0.459287
    H   H191  0.034230  0.352471  0.614849  0.078643
    H   H192  0.002539  0.384353  0.576114  0.102865
    H   H193  0.928642  0.339841  0.639691  -0.076944
    H   H194  0.887169  0.402640  0.571760  0.107621
    H   H195  0.873952  0.430034  0.615637  0.075649
    H   H196  0.836125  0.360423  0.600593  0.088894
    H   H197  0.931943  0.294563  0.564300  0.094677
    H   H198  0.891213  0.260055  0.600512  0.092571
    H   H199  0.975287  0.259533  0.599544  0.080324
    C   C205  0.381568  0.004169  0.604464  -0.386167
    C   C206  0.348875  0.065973  0.611530  0.589694
    C   C207  0.388198  0.120418  0.599048  -0.457776
    C   C208  0.286785  0.066854  0.592716  -0.459330
    H   H200  0.352471  0.965770  0.614849  0.078639
    H   H201  0.384353  0.997461  0.576114  0.102856
    H   H202  0.339841  0.071358  0.639691  -0.076958
    H   H203  0.402640  0.112830  0.571760  0.107611
    H   H204  0.430034  0.126048  0.615637  0.075649
    H   H205  0.360423  0.163875  0.600593  0.088890
    H   H206  0.294563  0.068057  0.564300  0.094685
    H   H207  0.260056  0.108787  0.600512  0.092583
    H   H208  0.259533  0.024713  0.599544  0.080330
