# Generated by REPEAT Assigner based on pymatgen
data_DB0-m2_o1_o2_f0_nbo.sym.88
_audit_creation_date              2022-05-24
_audit_creation_method            REPEAT_Assigner
_cell_length_a                    21.516721
_cell_length_b                    21.516721
_cell_length_c                    30.010064
_cell_angle_alpha                 90.000000
_cell_angle_beta                  90.000000
_cell_angle_gamma                 90.000000
_cell_volume                      13893.738022
_symmetry_space_group_name_H-M    P1
_symmetry_Int_Tables_number       1
loop_
    _symmetry_equiv_pos_site_id
    _symmetry_equiv_pos_as_xyz
    1  x,y,z
loop_
    _atom_site_type_symbol
    _atom_site_label
    _atom_site_fract_x
    _atom_site_fract_y
    _atom_site_fract_z
    _atom_type_partial_charge
    O   O1    0.088571  0.448807  0.512563  -0.565639
    O   O2    0.448807  0.911429  0.512563  -0.565674
    O   O3    0.911429  0.551193  0.512563  -0.565645
    O   O4    0.551193  0.088571  0.512563  -0.565611
    O   O5    0.088571  0.551193  0.487437  -0.565640
    O   O6    0.448807  0.088571  0.487437  -0.565669
    O   O7    0.911429  0.448807  0.487437  -0.565631
    O   O8    0.551193  0.911429  0.487437  -0.565607
    O   O9    0.588571  0.948807  0.012563  -0.565612
    O   O10   0.948807  0.411429  0.012563  -0.565604
    O   O11   0.411429  0.051193  0.012563  -0.565624
    O   O12   0.051193  0.588571  0.012563  -0.565630
    O   O13   0.588571  0.051193  0.987437  -0.565598
    O   O14   0.948807  0.588571  0.987437  -0.565579
    O   O15   0.411429  0.948807  0.987437  -0.565624
    O   O16   0.051193  0.411429  0.987437  -0.565642
    C   C1    0.117559  0.500000  0.500000  0.940012
    C   C2    0.500000  0.882441  0.500000  0.940033
    C   C3    0.882441  0.500000  0.500000  0.940018
    C   C4    0.500000  0.117559  0.500000  0.940018
    C   C5    0.617559  0.000000  0.000000  0.939954
    C   C6    0.000000  0.382441  0.000000  0.939972
    C   C7    0.382441  0.000000  0.000000  0.939976
    C   C8    0.000000  0.617559  0.000000  0.939950
    O   O17   0.017449  0.448848  0.436522  -0.554879
    O   O18   0.448848  0.982551  0.436522  -0.554911
    O   O19   0.982551  0.551152  0.436522  -0.554901
    O   O20   0.551152  0.017449  0.436522  -0.554865
    O   O21   0.017449  0.551152  0.563478  -0.554886
    O   O22   0.448848  0.017449  0.563478  -0.554898
    O   O23   0.982551  0.448848  0.563478  -0.554873
    O   O24   0.551152  0.982551  0.563478  -0.554859
    O   O25   0.517449  0.948848  0.936522  -0.554860
    O   O26   0.948848  0.482551  0.936522  -0.554846
    O   O27   0.482551  0.051152  0.936522  -0.554876
    O   O28   0.051152  0.517449  0.936522  -0.554893
    O   O29   0.517449  0.051152  0.063478  -0.554877
    O   O30   0.948848  0.517449  0.063478  -0.554844
    O   O31   0.482551  0.948848  0.063478  -0.554870
    O   O32   0.051152  0.482551  0.063478  -0.554906
    C   C9    0.281563  0.519675  0.537206  -0.271697
    C   C10   0.519675  0.718437  0.537206  -0.271688
    C   C11   0.718437  0.480324  0.537206  -0.271689
    C   C12   0.480324  0.281563  0.537206  -0.271696
    C   C13   0.281563  0.480324  0.462794  -0.271698
    C   C14   0.519675  0.281563  0.462794  -0.271698
    C   C15   0.718437  0.519675  0.462794  -0.271683
    C   C16   0.480324  0.718437  0.462794  -0.271686
    C   C17   0.781563  0.019676  0.037206  -0.271680
    C   C18   0.019676  0.218437  0.037206  -0.271677
    C   C19   0.218437  0.980324  0.037206  -0.271684
    C   C20   0.980324  0.781563  0.037206  -0.271685
    C   C21   0.781563  0.980324  0.962794  -0.271682
    C   C22   0.019676  0.781563  0.962794  -0.271680
    C   C23   0.218437  0.019676  0.962794  -0.271683
    C   C24   0.980324  0.218437  0.962794  -0.271683
    C   C25   0.000000  0.500000  0.415585  0.477238
    C   C26   0.500000  0.000000  0.415585  0.477241
    C   C27   0.000000  0.500000  0.584415  0.477219
    C   C28   0.500000  0.000000  0.584415  0.477221
    C   C29   0.500000  0.000000  0.915585  0.477241
    C   C30   0.000000  0.500000  0.915585  0.477241
    C   C31   0.500000  0.000000  0.084415  0.477224
    C   C32   0.000000  0.500000  0.084415  0.477224
    Cu  Cu1   0.000000  0.439350  0.500000  0.935237
    Cu  Cu2   0.439350  0.000000  0.500000  0.935160
    Cu  Cu3   0.000000  0.560649  0.500000  0.935237
    Cu  Cu4   0.560649  0.000000  0.500000  0.935309
    Cu  Cu5   0.500000  0.939350  0.000000  0.935180
    Cu  Cu6   0.939350  0.500000  0.000000  0.935230
    Cu  Cu7   0.500000  0.060650  0.000000  0.935238
    Cu  Cu8   0.060650  0.500000  0.000000  0.935193
    C   C33   0.185344  0.500000  0.500000  -0.398132
    C   C34   0.500000  0.814655  0.500000  -0.398154
    C   C35   0.814655  0.500000  0.500000  -0.398137
    C   C36   0.500000  0.185344  0.500000  -0.398136
    C   C37   0.685344  0.000000  0.000000  -0.398129
    C   C38   0.000000  0.314655  0.000000  -0.398126
    C   C39   0.314655  0.000000  0.000000  -0.398130
    C   C40   0.000000  0.685344  0.000000  -0.398125
    C   C41   0.217485  0.520702  0.536924  0.462486
    C   C42   0.520702  0.782515  0.536924  0.462491
    C   C43   0.782515  0.479298  0.536924  0.462486
    C   C44   0.479298  0.217485  0.536924  0.462488
    C   C45   0.217485  0.479298  0.463076  0.462504
    C   C46   0.520702  0.217485  0.463076  0.462504
    C   C47   0.782515  0.520702  0.463076  0.462506
    C   C48   0.479298  0.782515  0.463076  0.462514
    C   C49   0.717485  0.020702  0.036924  0.462483
    C   C50   0.020702  0.282515  0.036924  0.462498
    C   C51   0.282515  0.979298  0.036924  0.462507
    C   C52   0.979298  0.717485  0.036924  0.462497
    C   C53   0.717485  0.979298  0.963076  0.462507
    C   C54   0.020702  0.717485  0.963076  0.462499
    C   C55   0.282515  0.020702  0.963076  0.462496
    C   C56   0.979298  0.282515  0.963076  0.462506
    C   C57   0.978885  0.551231  0.297597  -0.179162
    C   C58   0.551231  0.021115  0.297597  -0.179168
    C   C59   0.021115  0.448769  0.297597  -0.179151
    C   C60   0.448769  0.978885  0.297597  -0.179150
    C   C61   0.978885  0.448769  0.702403  -0.179159
    C   C62   0.551231  0.978885  0.702403  -0.179171
    C   C63   0.021115  0.551231  0.702403  -0.179178
    C   C64   0.448769  0.021115  0.702403  -0.179166
    C   C65   0.478885  0.051231  0.797597  -0.179155
    C   C66   0.051231  0.521115  0.797597  -0.179164
    C   C67   0.521115  0.948769  0.797597  -0.179146
    C   C68   0.948769  0.478885  0.797597  -0.179138
    C   C69   0.478885  0.948769  0.202403  -0.179147
    C   C70   0.051231  0.478885  0.202403  -0.179170
    C   C71   0.521115  0.051231  0.202403  -0.179175
    C   C72   0.948769  0.521115  0.202403  -0.179153
    H   H1    0.963134  0.592134  0.280010  0.113437
    H   H2    0.592134  0.036866  0.280010  0.113441
    H   H3    0.036866  0.407866  0.280010  0.113435
    H   H4    0.407866  0.963134  0.280010  0.113432
    H   H5    0.963134  0.407866  0.719990  0.113436
    H   H6    0.592134  0.963134  0.719990  0.113443
    H   H7    0.036866  0.592134  0.719990  0.113445
    H   H8    0.407866  0.036866  0.719990  0.113438
    H   H9    0.463134  0.092134  0.780010  0.113436
    H   H10   0.092134  0.536866  0.780010  0.113437
    H   H11   0.536866  0.907866  0.780010  0.113431
    H   H12   0.907866  0.463134  0.780010  0.113429
    H   H13   0.463134  0.907866  0.219990  0.113433
    H   H14   0.092134  0.463134  0.219990  0.113439
    H   H15   0.536866  0.092134  0.219990  0.113441
    H   H16   0.907866  0.536866  0.219990  0.113435
    C   C73   0.979593  0.551536  0.343510  -0.111278
    C   C74   0.551536  0.020407  0.343510  -0.111264
    C   C75   0.020406  0.448463  0.343510  -0.111280
    C   C76   0.448463  0.979593  0.343510  -0.111289
    C   C77   0.979593  0.448463  0.656490  -0.111284
    C   C78   0.551536  0.979593  0.656490  -0.111269
    C   C79   0.020406  0.551536  0.656490  -0.111256
    C   C80   0.448463  0.020407  0.656490  -0.111270
    C   C81   0.479593  0.051536  0.843510  -0.111276
    C   C82   0.051536  0.520407  0.843510  -0.111266
    C   C83   0.520407  0.948463  0.843510  -0.111276
    C   C84   0.948463  0.479593  0.843510  -0.111286
    C   C85   0.479593  0.948463  0.156490  -0.111287
    C   C86   0.051536  0.479593  0.156490  -0.111274
    C   C87   0.520407  0.051536  0.156490  -0.111262
    C   C88   0.948463  0.520407  0.156490  -0.111276
    H   H17   0.963984  0.592631  0.360807  0.133987
    H   H18   0.592631  0.036016  0.360807  0.133983
    H   H19   0.036015  0.407369  0.360807  0.133984
    H   H20   0.407369  0.963984  0.360807  0.133993
    H   H21   0.963984  0.407369  0.639193  0.133990
    H   H22   0.592631  0.963984  0.639193  0.133987
    H   H23   0.036015  0.592631  0.639193  0.133976
    H   H24   0.407369  0.036016  0.639193  0.133982
    H   H25   0.463984  0.092631  0.860807  0.133987
    H   H26   0.092631  0.536016  0.860807  0.133978
    H   H27   0.536016  0.907369  0.860807  0.133981
    H   H28   0.907369  0.463984  0.860807  0.133989
    H   H29   0.463984  0.907369  0.139193  0.133989
    H   H30   0.092631  0.463984  0.139193  0.133986
    H   H31   0.536016  0.092631  0.139193  0.133981
    H   H32   0.907369  0.536016  0.139193  0.133983
    C   C89   0.000000  0.500000  0.366752  0.074290
    C   C90   0.500000  0.000000  0.366752  0.074282
    C   C91   0.000000  0.500000  0.633248  0.074286
    C   C92   0.500000  0.000000  0.633248  0.074283
    C   C93   0.500000  0.000000  0.866752  0.074275
    C   C94   0.000000  0.500000  0.866752  0.074275
    C   C95   0.500000  0.000000  0.133248  0.074285
    C   C96   0.000000  0.500000  0.133248  0.074286
    C   C97   0.000000  0.500000  0.274407  0.117896
    C   C98   0.500000  0.000000  0.274407  0.117899
    C   C99   0.000000  0.500000  0.725593  0.117907
    C   C100  0.500000  0.000000  0.725593  0.117906
    C   C101  0.500000  0.000000  0.774407  0.117888
    C   C102  0.000000  0.500000  0.774407  0.117890
    C   C103  0.500000  0.000000  0.225593  0.117897
    C   C104  0.000000  0.500000  0.225593  0.117901
    O   O33   0.482664  0.411298  0.536686  -0.582241
    O   O34   0.411298  0.517336  0.536686  -0.582241
    O   O35   0.517336  0.588702  0.536686  -0.582231
    O   O36   0.588702  0.482664  0.536686  -0.582232
    O   O37   0.482664  0.588702  0.463314  -0.582174
    O   O38   0.411298  0.482664  0.463314  -0.582188
    O   O39   0.517336  0.411298  0.463314  -0.582184
    O   O40   0.588702  0.517336  0.463314  -0.582175
    O   O41   0.982664  0.911298  0.036686  -0.582196
    O   O42   0.911298  0.017336  0.036686  -0.582199
    O   O43   0.017336  0.088702  0.036686  -0.582205
    O   O44   0.088702  0.982664  0.036686  -0.582203
    O   O45   0.982664  0.088702  0.963314  -0.582190
    O   O46   0.911298  0.982664  0.963314  -0.582181
    O   O47   0.017336  0.911298  0.963314  -0.582184
    O   O48   0.088702  0.017336  0.963314  -0.582191
    C   C105  0.500000  0.382078  0.500000  0.717929
    C   C106  0.382078  0.500000  0.500000  0.717926
    C   C107  0.500000  0.617922  0.500000  0.717902
    C   C108  0.617922  0.500000  0.500000  0.717903
    C   C109  0.000000  0.882078  0.000000  0.717912
    C   C110  0.882078  0.000000  0.000000  0.717915
    C   C111  0.000000  0.117922  0.000000  0.717888
    C   C112  0.117922  0.000000  0.000000  0.717881
    C   C113  0.313947  0.500000  0.500000  -0.015246
    C   C114  0.500000  0.686053  0.500000  -0.015240
    C   C115  0.686053  0.500000  0.500000  -0.015238
    C   C116  0.500000  0.313947  0.500000  -0.015248
    C   C117  0.813947  0.000000  0.000000  -0.015277
    C   C118  0.000000  0.186053  0.000000  -0.015256
    C   C119  0.186053  0.000000  0.000000  -0.015249
    C   C120  0.000000  0.813947  0.000000  -0.015275
    Cu  Cu9   0.500000  0.500000  0.543493  0.906798
    Cu  Cu10  0.500000  0.500000  0.456507  0.906906
    Cu  Cu11  0.000000  0.000000  0.043493  0.906853
    Cu  Cu12  0.000000  0.000000  0.956507  0.906795
    H   H33   0.305809  0.535540  0.566607  0.137802
    H   H34   0.535540  0.694191  0.566607  0.137792
    H   H35   0.694191  0.464460  0.566608  0.137794
    H   H36   0.464460  0.305809  0.566607  0.137803
    H   H37   0.305809  0.464460  0.433393  0.137805
    H   H38   0.535540  0.305809  0.433393  0.137802
    H   H39   0.694191  0.535540  0.433393  0.137790
    H   H40   0.464460  0.694191  0.433393  0.137791
    H   H41   0.805809  0.035540  0.066607  0.137802
    H   H42   0.035540  0.194191  0.066607  0.137797
    H   H43   0.194191  0.964460  0.066607  0.137798
    H   H44   0.964460  0.805809  0.066607  0.137803
    H   H45   0.805809  0.964460  0.933393  0.137798
    H   H46   0.035540  0.805809  0.933393  0.137798
    H   H47   0.194191  0.035540  0.933393  0.137797
    H   H48   0.964460  0.194191  0.933393  0.137795
    N   N1    0.185103  0.541916  0.574805  -0.668163
    C   C121  0.176127  0.603982  0.574686  0.842996
    O   O49   0.178848  0.632891  0.539801  -0.593390
    C   C122  0.164159  0.637978  0.617137  -0.529135
    H   H49   0.200716  0.524993  0.604847  0.307875
    H   H50   0.160281  0.605111  0.645460  0.105339
    H   H51   0.120185  0.664486  0.614065  0.160726
    H   H52   0.202850  0.670841  0.623489  0.139579
    N   N2    0.541916  0.814896  0.574805  -0.668154
    C   C123  0.603982  0.823873  0.574686  0.843006
    O   O50   0.632891  0.821152  0.539801  -0.593390
    C   C124  0.637978  0.835841  0.617137  -0.529147
    H   H53   0.524993  0.799284  0.604847  0.307872
    H   H54   0.605112  0.839718  0.645460  0.105346
    H   H55   0.664486  0.879815  0.614065  0.160729
    H   H56   0.670841  0.797149  0.623489  0.139576
    N   N3    0.814896  0.458084  0.574805  -0.668139
    C   C125  0.823873  0.396018  0.574687  0.842969
    O   O51   0.821152  0.367109  0.539801  -0.593385
    C   C126  0.835841  0.362022  0.617137  -0.529125
    H   H57   0.799284  0.475007  0.604847  0.307871
    H   H58   0.839718  0.394889  0.645460  0.105340
    H   H59   0.879815  0.335514  0.614065  0.160727
    H   H60   0.797149  0.329159  0.623489  0.139577
    N   N4    0.458084  0.185103  0.574805  -0.668160
    C   C127  0.396018  0.176127  0.574686  0.842971
    O   O52   0.367109  0.178848  0.539801  -0.593382
    C   C128  0.362022  0.164159  0.617137  -0.529101
    H   H61   0.475007  0.200716  0.604847  0.307879
    H   H62   0.394888  0.160281  0.645460  0.105335
    H   H63   0.335514  0.120185  0.614065  0.160715
    H   H64   0.329159  0.202850  0.623489  0.139570
    N   N5    0.185103  0.458084  0.425195  -0.668174
    C   C129  0.176127  0.396018  0.425314  0.842992
    O   O53   0.178848  0.367109  0.460199  -0.593392
    C   C130  0.164159  0.362022  0.382863  -0.529092
    H   H65   0.200716  0.475007  0.395153  0.307877
    H   H66   0.160281  0.394888  0.354540  0.105327
    H   H67   0.120185  0.335514  0.385935  0.160715
    H   H68   0.202850  0.329159  0.376511  0.139567
    N   N6    0.541916  0.185103  0.425195  -0.668174
    C   C131  0.603982  0.176127  0.425314  0.843024
    O   O54   0.632891  0.178848  0.460199  -0.593403
    C   C132  0.637978  0.164159  0.382863  -0.529129
    H   H69   0.524993  0.200716  0.395153  0.307871
    H   H70   0.605112  0.160281  0.354540  0.105335
    H   H71   0.664486  0.120185  0.385935  0.160725
    H   H72   0.670841  0.202850  0.376511  0.139575
    N   N7    0.814896  0.541916  0.425195  -0.668168
    C   C133  0.823873  0.603982  0.425314  0.843025
    O   O55   0.821152  0.632891  0.460199  -0.593406
    C   C134  0.835841  0.637978  0.382863  -0.529137
    H   H73   0.799284  0.524993  0.395153  0.307875
    H   H74   0.839718  0.605111  0.354540  0.105337
    H   H75   0.879815  0.664486  0.385935  0.160728
    H   H76   0.797149  0.670841  0.376511  0.139577
    N   N8    0.458084  0.814896  0.425195  -0.668170
    C   C135  0.396018  0.823873  0.425314  0.842998
    O   O56   0.367109  0.821152  0.460199  -0.593397
    C   C136  0.362022  0.835841  0.382863  -0.529104
    H   H77   0.475007  0.799284  0.395153  0.307881
    H   H78   0.394888  0.839718  0.354540  0.105333
    H   H79   0.335514  0.879815  0.385935  0.160716
    H   H80   0.329159  0.797149  0.376511  0.139569
    N   N9    0.685103  0.041916  0.074805  -0.668163
    C   C137  0.676127  0.103982  0.074686  0.842992
    O   O57   0.678848  0.132891  0.039801  -0.593392
    C   C138  0.664159  0.137978  0.117137  -0.529112
    H   H81   0.700716  0.024993  0.104847  0.307875
    H   H82   0.660281  0.105112  0.145460  0.105337
    H   H83   0.620185  0.164486  0.114064  0.160719
    H   H84   0.702850  0.170841  0.123489  0.139572
    N   N10   0.041916  0.314896  0.074805  -0.668181
    C   C139  0.103983  0.323873  0.074686  0.842993
    O   O58   0.132891  0.321152  0.039801  -0.593390
    C   C140  0.137978  0.335841  0.117137  -0.529116
    H   H85   0.024993  0.299284  0.104847  0.307881
    H   H86   0.105112  0.339718  0.145459  0.105346
    H   H87   0.164486  0.379815  0.114064  0.160716
    H   H88   0.170841  0.297150  0.123489  0.139574
    N   N11   0.314896  0.958084  0.074805  -0.668182
    C   C141  0.323873  0.896017  0.074686  0.842972
    O   O59   0.321152  0.867109  0.039801  -0.593379
    C   C142  0.335841  0.862022  0.117137  -0.529086
    H   H89   0.299284  0.975007  0.104847  0.307885
    H   H90   0.339718  0.894888  0.145460  0.105336
    H   H91   0.379815  0.835514  0.114064  0.160711
    H   H92   0.297150  0.829159  0.123489  0.139565
    N   N12   0.958084  0.685103  0.074805  -0.668181
    C   C143  0.896017  0.676127  0.074686  0.842972
    O   O60   0.867109  0.678848  0.039801  -0.593380
    C   C144  0.862022  0.664159  0.117137  -0.529078
    H   H93   0.975006  0.700716  0.104847  0.307880
    H   H94   0.894888  0.660282  0.145459  0.105336
    H   H95   0.835514  0.620185  0.114064  0.160711
    H   H96   0.829159  0.702850  0.123489  0.139561
    N   N13   0.685103  0.958084  0.925195  -0.668176
    C   C145  0.676127  0.896017  0.925314  0.842989
    O   O61   0.678848  0.867109  0.960199  -0.593389
    C   C146  0.664159  0.862022  0.882863  -0.529083
    H   H97   0.700716  0.975007  0.895153  0.307875
    H   H98   0.660281  0.894888  0.854540  0.105331
    H   H99   0.620185  0.835514  0.885936  0.160712
    H   H100  0.702850  0.829159  0.876511  0.139564
    N   N14   0.041916  0.685103  0.925195  -0.668178
    C   C147  0.103983  0.676127  0.925314  0.843009
    O   O62   0.132891  0.678848  0.960199  -0.593399
    C   C148  0.137978  0.664159  0.882863  -0.529104
    H   H101  0.024993  0.700716  0.895153  0.307873
    H   H102  0.105112  0.660282  0.854541  0.105339
    H   H103  0.164486  0.620185  0.885936  0.160717
    H   H104  0.170841  0.702850  0.876511  0.139569
    N   N15   0.314896  0.041916  0.925195  -0.668167
    C   C149  0.323873  0.103982  0.925314  0.843011
    O   O63   0.321152  0.132891  0.960199  -0.593399
    C   C150  0.335841  0.137978  0.882863  -0.529118
    H   H105  0.299284  0.024993  0.895153  0.307874
    H   H106  0.339718  0.105112  0.854540  0.105334
    H   H107  0.379815  0.164486  0.885936  0.160722
    H   H108  0.297149  0.170841  0.876511  0.139571
    N   N16   0.958084  0.314896  0.925195  -0.668182
    C   C151  0.896017  0.323873  0.925314  0.843007
    O   O64   0.867109  0.321152  0.960199  -0.593389
    C   C152  0.862022  0.335841  0.882864  -0.529095
    H   H109  0.975006  0.299284  0.895153  0.307878
    H   H110  0.894888  0.339718  0.854541  0.105324
    H   H111  0.835514  0.379815  0.885936  0.160717
    H   H112  0.829159  0.297150  0.876511  0.139566
