# Generated by REPEAT Assigner based on pymatgen
data_DB0-m2_o1_o3_f0_pcu.sym.7_sqe
_audit_creation_date              2022-05-24
_audit_creation_method            REPEAT_Assigner
_cell_length_a                    11.043039
_cell_length_b                    9.364971
_cell_length_c                    19.294179
_cell_angle_alpha                 90.000000
_cell_angle_beta                  89.994944
_cell_angle_gamma                 90.000000
_cell_volume                      1995.360271
_symmetry_space_group_name_H-M    P1
_symmetry_Int_Tables_number       1
loop_
    _symmetry_equiv_pos_site_id
    _symmetry_equiv_pos_as_xyz
    1  x,y,z
loop_
    _atom_site_type_symbol
    _atom_site_label
    _atom_site_fract_x
    _atom_site_fract_y
    _atom_site_fract_z
    _atom_type_partial_charge
    O   O1   0.327777  0.615950  0.520340  -0.405104
    O   O2   0.672740  0.384462  0.520061  -0.423982
    O   O3   0.672556  0.616151  0.480093  -0.421191
    O   O4   0.327977  0.384298  0.479819  -0.403918
    C   C1   0.870232  0.500475  0.499961  -0.088304
    C   C2   0.130085  0.499928  0.500077  -0.088258
    C   C3   0.268124  0.500022  0.500207  0.575264
    C   C4   0.732380  0.500433  0.500189  0.602156
    O   O5   0.465068  0.617539  0.401576  -0.441012
    O   O6   0.465104  0.382905  0.598516  -0.445306
    O   O7   0.535204  0.616381  0.598888  -0.442043
    O   O8   0.535304  0.384078  0.401200  -0.438766
    C   C5   0.500387  0.501103  0.368849  0.387632
    C   C6   0.500306  0.499427  0.631373  0.386189
    Cu  Cu1  0.499646  0.638912  0.500326  0.577032
    Cu  Cu2  0.500647  0.361502  0.499464  0.574238
    H   H1   0.488819  0.126655  0.390086  0.087082
    H   H2   0.489814  0.873665  0.609359  0.083265
    H   H3   0.489518  0.130915  0.608162  0.081182
    H   H4   0.490166  0.870077  0.391212  0.081535
    C   C7   0.063793  0.371073  0.502313  -0.054294
    C   C8   0.936447  0.629504  0.501659  -0.076018
    C   C9   0.936190  0.371492  0.498283  -0.049736
    C   C10  0.064113  0.628867  0.497785  -0.028081
    C   C11  0.441573  0.392543  0.743530  -0.165405
    C   C12  0.441174  0.607422  0.256567  -0.160593
    C   C13  0.560876  0.395836  0.256747  -0.132343
    C   C14  0.560455  0.605203  0.743381  -0.137561
    H   H5   0.393788  0.308425  0.716689  0.131523
    H   H6   0.392912  0.690649  0.283613  0.129479
    H   H7   0.610314  0.313669  0.284074  0.116097
    H   H8   0.609539  0.688162  0.716253  0.118642
    C   C15  0.440445  0.393431  0.814873  -0.125100
    C   C16  0.440599  0.606959  0.185001  -0.128289
    C   C17  0.561534  0.396184  0.185140  -0.138062
    C   C18  0.561562  0.604366  0.814760  -0.135702
    H   H9   0.389691  0.311566  0.841464  0.103383
    H   H10  0.390290  0.688728  0.157977  0.103582
    H   H11  0.613017  0.314861  0.158452  0.105045
    H   H12  0.613377  0.685797  0.840968  0.105535
    C   C19  0.500462  0.499254  0.851255  0.056013
    C   C20  0.500528  0.501168  0.148547  0.056697
    C   C21  0.495750  0.072959  0.439544  -0.024279
    C   C22  0.495779  0.927579  0.560333  -0.013792
    C   C23  0.495034  0.074865  0.559597  0.003466
    C   C24  0.494704  0.925354  0.440325  0.007759
    C   C25  0.500447  0.499176  0.707394  0.120851
    C   C26  0.500466  0.501366  0.292891  0.114160
    C   C27  0.498806  0.626921  0.963709  -0.152438
    C   C28  0.498617  0.373322  0.035853  -0.152976
    C   C29  0.499529  0.627705  0.035177  -0.157668
    C   C30  0.499284  0.372670  0.964380  -0.157499
    H   H13  0.496427  0.727799  0.936701  0.116583
    H   H14  0.495949  0.272193  0.062825  0.117148
    H   H15  0.502920  0.729536  0.061431  0.119029
    H   H16  0.502288  0.271021  0.938108  0.118707
    N   N1   0.500125  0.852903  0.500689  0.083846
    N   N2   0.500032  0.147445  0.499757  0.091049
    C   C31  0.499684  0.500818  0.072045  0.101144
    C   C32  0.499611  0.499515  0.927584  0.100641
    C   C33  0.129365  0.230056  0.511187  0.127151
    C   C34  0.170543  0.170632  0.441481  -0.231232
    H   H17  0.104078  0.094718  0.419536  0.033380
    H   H18  0.184198  0.258270  0.403599  0.037309
    H   H19  0.256119  0.112154  0.449545  0.044173
    H   H20  0.206363  0.241201  0.547480  -0.048941
    H   H21  0.075920  0.148278  0.538061  0.042447
    C   C35  0.871407  0.770544  0.511214  0.174428
    C   C36  0.830459  0.831629  0.441709  -0.247499
    H   H22  0.897650  0.908195  0.421152  0.039719
    H   H23  0.819917  0.744211  0.403502  0.037474
    H   H24  0.743806  0.889642  0.448093  0.039229
    H   H25  0.795239  0.759909  0.548117  -0.057650
    H   H26  0.926441  0.850998  0.537931  0.034781
    C   C37  0.870983  0.231333  0.487883  0.162203
    C   C38  0.831528  0.166927  0.556984  -0.240613
    H   H27  0.898886  0.088760  0.575544  0.038254
    H   H28  0.822528  0.251546  0.596810  0.035260
    H   H29  0.744628  0.109258  0.550850  0.039840
    H   H30  0.794358  0.243627  0.451470  -0.055771
    H   H31  0.926303  0.152854  0.460116  0.032670
    C   C39  0.129976  0.769189  0.488447  0.109020
    C   C40  0.169836  0.831627  0.557884  -0.239740
    H   H32  0.101988  0.906769  0.578795  0.035162
    H   H33  0.184319  0.746436  0.596965  0.040095
    H   H34  0.254244  0.892342  0.549582  0.050165
    H   H35  0.207205  0.757151  0.452411  -0.047347
    H   H36  0.075936  0.849115  0.460786  0.047797
