# Generated by REPEAT Assigner based on pymatgen
data_DB0-m2_o1_o2_f0_pcu.sym.5_sqe
_audit_creation_date              2022-05-24
_audit_creation_method            REPEAT_Assigner
_cell_length_a                    10.938522
_cell_length_b                    9.428321
_cell_length_c                    15.164336
_cell_angle_alpha                 90.000000
_cell_angle_beta                  90.005988
_cell_angle_gamma                 90.000000
_cell_volume                      1563.926746
_symmetry_space_group_name_H-M    P1
_symmetry_Int_Tables_number       1
loop_
    _symmetry_equiv_pos_site_id
    _symmetry_equiv_pos_as_xyz
    1  x,y,z
loop_
    _atom_site_type_symbol
    _atom_site_label
    _atom_site_fract_x
    _atom_site_fract_y
    _atom_site_fract_z
    _atom_type_partial_charge
    O   O1   0.321882  0.621395  0.495542  -0.365751
    O   O2   0.677280  0.378315  0.505001  -0.474844
    O   O3   0.677175  0.621323  0.499142  -0.454896
    O   O4   0.321813  0.378542  0.502370  -0.474416
    N   N1   0.499073  0.853919  0.500461  -0.269511
    N   N2   0.499434  0.145594  0.500916  -0.150129
    C   C1   0.263411  0.500177  0.498585  0.606596
    C   C2   0.735457  0.499993  0.502077  0.750502
    O   O5   0.498021  0.621425  0.372189  -0.551322
    O   O6   0.501835  0.378297  0.628847  -0.525237
    O   O7   0.492538  0.621153  0.628504  -0.526290
    O   O8   0.505890  0.378312  0.372525  -0.534946
    C   C3   0.503243  0.499752  0.330387  0.766667
    C   C4   0.496456  0.499883  0.670548  0.748590
    Cu  Cu1  0.499240  0.641505  0.500436  0.648084
    Cu  Cu2  0.500161  0.358073  0.500641  0.668966
    C   C5   0.428995  0.073226  0.443642  0.104921
    C   C6   0.573695  0.926020  0.555186  0.296065
    C   C7   0.574145  0.072573  0.555383  0.211286
    C   C8   0.428151  0.926475  0.443671  0.349286
    C   C9   0.061983  0.378730  0.480926  0.192250
    C   C10  0.936454  0.624265  0.518027  0.232338
    C   C11  0.935920  0.378168  0.482298  0.264228
    C   C12  0.062827  0.624205  0.517345  0.249088
    C   C13  0.537555  0.620508  0.094928  -0.629825
    C   C14  0.539212  0.384655  0.905728  -0.614069
    C   C15  0.457387  0.618331  0.905797  -0.628965
    C   C16  0.468391  0.381479  0.094673  -0.626563
    H   H1   0.567382  0.714411  0.060130  0.178090
    H   H2   0.574642  0.293055  0.940121  0.174602
    H   H3   0.422111  0.709451  0.940749  0.173027
    H   H4   0.437258  0.288154  0.059934  0.177531
    C   C17  0.539854  0.619772  0.186016  0.631054
    C   C18  0.537721  0.383322  0.814951  0.651500
    C   C19  0.455158  0.618018  0.814750  0.625712
    C   C20  0.470036  0.379657  0.185554  0.689926
    C   C21  0.504614  0.499587  0.232707  -0.566543
    C   C22  0.496239  0.500392  0.768033  -0.550380
    C   C23  0.501357  0.501717  0.048715  0.385674
    C   C24  0.499587  0.501935  0.951838  0.393367
    C   C25  0.871030  0.500725  0.501318  -0.372765
    C   C26  0.127647  0.501084  0.498940  -0.304497
    O   O9   0.355738  0.144515  0.385988  -0.230062
    H   H5   0.274921  0.098976  0.392293  0.254404
    O   O10  0.648298  0.854524  0.612147  -0.411861
    H   H6   0.612073  0.870786  0.671080  0.295186
    O   O11  0.648337  0.142790  0.613146  -0.350896
    H   H7   0.732332  0.118215  0.594640  0.298962
    O   O12  0.352703  0.855310  0.387108  -0.389558
    H   H8   0.388516  0.872058  0.328158  0.273857
    O   O13  0.581917  0.737536  0.228842  -0.530387
    H   H9   0.525573  0.814237  0.210565  0.364139
    O   O14  0.580511  0.265604  0.772697  -0.526111
    H   H10  0.512460  0.196602  0.776530  0.334805
    O   O15  0.407298  0.732971  0.772073  -0.520832
    H   H11  0.465728  0.810652  0.784291  0.358053
    O   O16  0.433275  0.258993  0.227608  -0.568015
    H   H12  0.505620  0.195942  0.225693  0.339542
    O   O17  0.120278  0.257120  0.457058  -0.471879
    H   H13  0.110189  0.253678  0.392201  0.368568
    O   O18  0.877838  0.748443  0.537141  -0.469799
    H   H14  0.876796  0.800962  0.480579  0.348472
    O   O19  0.876839  0.255310  0.460633  -0.525353
    H   H15  0.898796  0.188355  0.508337  0.365101
    O   O20  0.122319  0.747761  0.536822  -0.515339
    H   H16  0.131220  0.746633  0.601798  0.360602
