# Generated by REPEAT Assigner based on pymatgen
data_DB0-m2_o1_o3_f0_nbo.sym.100_sqe
_audit_creation_date              2022-05-24
_audit_creation_method            REPEAT_Assigner
_cell_length_a                    21.509189
_cell_length_b                    21.509189
_cell_length_c                    38.426269
_cell_angle_alpha                 90.000000
_cell_angle_beta                  90.000000
_cell_angle_gamma                 90.000000
_cell_volume                      17777.729393
_symmetry_space_group_name_H-M    P1
_symmetry_Int_Tables_number       1
loop_
    _symmetry_equiv_pos_site_id
    _symmetry_equiv_pos_as_xyz
    1  x,y,z
loop_
    _atom_site_type_symbol
    _atom_site_label
    _atom_site_fract_x
    _atom_site_fract_y
    _atom_site_fract_z
    _atom_type_partial_charge
    C   C1    0.617779  0.000000  0.500000  0.629582
    C   C2    0.000000  0.500000  0.565998  0.803002
    C   C3    0.459640  0.781979  0.978678  -0.121482
    C   C4    0.218021  0.540361  0.021322  -0.121427
    C   C5    0.540361  0.781979  0.021322  -0.121478
    C   C6    0.781979  0.459640  0.021322  -0.121454
    C   C7    0.459640  0.218021  0.021322  -0.121438
    C   C8    0.782097  0.960441  0.478213  -0.089892
    C   C9    0.039559  0.782097  0.478213  -0.089846
    C   C10   0.217903  0.039559  0.478213  -0.089822
    C   C11   0.960441  0.217903  0.478213  -0.089842
    C   C12   0.782097  0.039559  0.521787  -0.089886
    C   C13   0.500000  0.000000  0.434002  0.803003
    C   C14   0.039559  0.217903  0.521787  -0.089816
    C   C15   0.217903  0.960441  0.521787  -0.089871
    C   C16   0.960441  0.782097  0.521787  -0.089797
    C   C17   0.282097  0.460441  0.978213  -0.089841
    C   C18   0.539559  0.282097  0.978213  -0.089840
    C   C19   0.717903  0.539559  0.978213  -0.089842
    C   C20   0.460441  0.717903  0.978213  -0.089850
    C   C21   0.282097  0.539559  0.021787  -0.089841
    C   C22   0.539559  0.717903  0.021787  -0.089847
    C   C23   0.717903  0.460441  0.021787  -0.089845
    C   C24   0.000000  0.500000  0.434002  0.803007
    C   C25   0.460441  0.282097  0.021787  -0.089841
    C   C26   0.814363  0.000000  0.500000  -0.043528
    C   C27   0.000000  0.814363  0.500000  -0.043675
    C   C28   0.185637  0.000000  0.500000  -0.043681
    C   C29   0.000000  0.185637  0.500000  -0.043723
    C   C30   0.314363  0.500000  0.000000  -0.043662
    C   C31   0.500000  0.314363  0.000000  -0.043659
    C   C32   0.685637  0.500000  0.000000  -0.043681
    C   C33   0.500000  0.685637  0.000000  -0.043649
    C   C34   0.685755  0.000000  0.500000  0.040890
    C   C35   0.000000  0.500000  0.065998  0.803020
    C   C36   0.000000  0.685755  0.500000  0.040896
    C   C37   0.314245  0.000000  0.500000  0.040934
    C   C38   0.000000  0.314245  0.500000  0.040929
    C   C39   0.185755  0.500000  0.000000  0.040906
    C   C40   0.500000  0.185755  0.000000  0.040916
    C   C41   0.814245  0.500000  0.000000  0.040946
    C   C42   0.500000  0.814245  0.000000  0.040955
    C   C43   0.000000  0.117662  0.500000  0.720653
    C   C44   0.882338  0.000000  0.500000  0.720391
    C   C45   0.000000  0.882338  0.500000  0.720600
    C   C46   0.500000  0.000000  0.065998  0.803019
    C   C47   0.117662  0.000000  0.500000  0.720570
    C   C48   0.500000  0.617662  0.000000  0.720579
    C   C49   0.382338  0.500000  0.000000  0.720549
    C   C50   0.500000  0.382338  0.000000  0.720543
    C   C51   0.617662  0.500000  0.000000  0.720598
    C   C52   0.648283  0.000253  0.824872  0.339040
    C   C53   0.705566  0.025703  0.842937  0.128326
    C   C54   0.756889  0.977466  0.842447  -0.285892
    C   C55   0.999747  0.648283  0.824872  0.339022
    C   C56   0.974297  0.705566  0.842937  0.128409
    C   C57   0.000000  0.500000  0.934002  0.803024
    C   C58   0.022534  0.756889  0.842447  -0.286005
    C   C59   0.351717  0.999747  0.824872  0.339010
    C   C60   0.294434  0.974297  0.842937  0.128379
    C   C61   0.243111  0.022534  0.842448  -0.285843
    C   C62   0.000254  0.351717  0.824872  0.338864
    C   C63   0.025703  0.294434  0.842937  0.128511
    C   C64   0.977467  0.243111  0.842448  -0.285906
    C   C65   0.648283  0.999747  0.175128  0.339036
    C   C66   0.705566  0.974297  0.157063  0.128289
    C   C67   0.756889  0.022534  0.157552  -0.285831
    C   C68   0.500000  0.000000  0.934002  0.803014
    C   C69   0.999747  0.351717  0.175128  0.339017
    C   C70   0.974297  0.294434  0.157063  0.128323
    C   C71   0.022534  0.243111  0.157552  -0.285839
    C   C72   0.351717  0.000253  0.175128  0.338836
    C   C73   0.294434  0.025703  0.157063  0.128653
    C   C74   0.243111  0.977467  0.157553  -0.286003
    C   C75   0.000253  0.648283  0.175128  0.339004
    C   C76   0.025703  0.705566  0.157063  0.128360
    C   C77   0.977466  0.756889  0.157552  -0.285848
    C   C78   0.148283  0.500253  0.324872  0.339016
    C   C79   0.551423  0.020666  0.878120  -0.348933
    C   C80   0.205566  0.525703  0.342937  0.128429
    C   C81   0.256889  0.477466  0.342447  -0.286020
    C   C82   0.499747  0.148283  0.324872  0.339012
    C   C83   0.474297  0.205566  0.342937  0.128432
    C   C84   0.522534  0.256889  0.342448  -0.285857
    C   C85   0.851717  0.499747  0.324872  0.339005
    C   C86   0.794434  0.474297  0.342937  0.128321
    C   C87   0.743111  0.522534  0.342448  -0.285820
    C   C88   0.500253  0.851717  0.324872  0.338994
    C   C89   0.525703  0.794434  0.342937  0.128411
    C   C90   0.979334  0.551423  0.878120  -0.348947
    C   C91   0.477466  0.743111  0.342447  -0.285978
    C   C92   0.148283  0.499747  0.675128  0.339027
    C   C93   0.205566  0.474297  0.657063  0.128383
    C   C94   0.256889  0.522534  0.657552  -0.285818
    C   C95   0.499747  0.851717  0.675128  0.339064
    C   C96   0.474297  0.794434  0.657063  0.128333
    C   C97   0.522534  0.743111  0.657553  -0.285883
    C   C98   0.851717  0.500253  0.675128  0.339034
    C   C99   0.794434  0.525703  0.657063  0.128417
    C   C100  0.743111  0.477466  0.657553  -0.285876
    C   C101  0.448577  0.979334  0.878120  -0.348838
    C   C102  0.500253  0.148283  0.675128  0.339030
    C   C103  0.525703  0.205566  0.657063  0.128318
    C   C104  0.477466  0.256889  0.657552  -0.285837
    C   C105  0.000000  0.617779  0.500000  0.629572
    C   C106  0.020666  0.448577  0.878120  -0.348898
    C   C107  0.551423  0.979334  0.121880  -0.348930
    C   C108  0.979334  0.448577  0.121880  -0.348817
    C   C109  0.448577  0.020666  0.121880  -0.348924
    C   C110  0.020666  0.551423  0.121880  -0.348899
    C   C111  0.051423  0.520666  0.378120  -0.348919
    C   C112  0.479334  0.051423  0.378120  -0.348890
    C   C113  0.948577  0.479334  0.378120  -0.348849
    C   C114  0.520666  0.948577  0.378120  -0.348905
    C   C115  0.051423  0.479334  0.621880  -0.348926
    C   C116  0.382221  0.000000  0.500000  0.629568
    C   C117  0.479334  0.948577  0.621880  -0.348855
    C   C118  0.948577  0.520666  0.621880  -0.348899
    C   C119  0.520666  0.051423  0.621880  -0.348898
    C   C120  0.551990  0.020185  0.842173  0.441451
    C   C121  0.979815  0.551990  0.842173  0.441485
    C   C122  0.448010  0.979815  0.842173  0.441393
    C   C123  0.020186  0.448010  0.842173  0.441498
    C   C124  0.551990  0.979815  0.157827  0.441476
    C   C125  0.979815  0.448010  0.157827  0.441349
    C   C126  0.448010  0.020186  0.157827  0.441553
    C   C127  0.000000  0.382221  0.500000  0.629585
    C   C128  0.020185  0.551990  0.157827  0.441432
    C   C129  0.051990  0.520185  0.342173  0.441443
    C   C130  0.479815  0.051990  0.342173  0.441433
    C   C131  0.948010  0.479815  0.342173  0.441396
    C   C132  0.520185  0.948010  0.342173  0.441429
    C   C133  0.051990  0.479815  0.657827  0.441451
    C   C134  0.479815  0.948010  0.657827  0.441386
    C   C135  0.948010  0.520185  0.657827  0.441425
    C   C136  0.520185  0.051990  0.657827  0.441430
    C   C137  0.500000  0.000000  0.824097  -0.227556
    C   C138  0.117779  0.500000  0.000000  0.629566
    C   C139  0.000000  0.500000  0.824097  -0.227648
    C   C140  0.500000  0.000000  0.175903  -0.227699
    C   C141  0.000000  0.500000  0.175903  -0.227523
    C   C142  0.000000  0.500000  0.324097  -0.227545
    C   C143  0.500000  0.000000  0.324097  -0.227561
    C   C144  0.000000  0.500000  0.675903  -0.227559
    C   C145  0.500000  0.000000  0.675903  -0.227552
    C   C146  0.500000  0.000000  0.896042  -0.040481
    C   C147  0.000000  0.500000  0.896042  -0.040465
    C   C148  0.500000  0.000000  0.103958  -0.040468
    C   C149  0.500000  0.117779  0.000000  0.629564
    C   C150  0.000000  0.500000  0.103958  -0.040499
    C   C151  0.000000  0.500000  0.396042  -0.040478
    C   C152  0.500000  0.000000  0.396042  -0.040467
    C   C153  0.000000  0.500000  0.603958  -0.040454
    C   C154  0.500000  0.000000  0.603958  -0.040476
    C   C155  0.461373  0.039694  0.767918  -0.120460
    C   C156  0.960306  0.461372  0.767918  -0.120547
    C   C157  0.538627  0.960306  0.767918  -0.120506
    C   C158  0.039694  0.538628  0.767918  -0.120544
    C   C159  0.461373  0.960306  0.232082  -0.120562
    C   C160  0.882221  0.500000  0.000000  0.629552
    C   C161  0.960306  0.538628  0.232082  -0.120501
    C   C162  0.538628  0.039694  0.232082  -0.120611
    C   C163  0.039694  0.461373  0.232082  -0.120485
    C   C164  0.961372  0.539694  0.267918  -0.120494
    C   C165  0.460306  0.961373  0.267918  -0.120481
    C   C166  0.038627  0.460306  0.267918  -0.120495
    C   C167  0.539694  0.038627  0.267918  -0.120437
    C   C168  0.961373  0.460306  0.732082  -0.120419
    C   C169  0.460306  0.038628  0.732082  -0.120548
    C   C170  0.038628  0.539694  0.732082  -0.120456
    C   C171  0.500000  0.882221  0.000000  0.629597
    C   C172  0.539694  0.961373  0.732082  -0.120500
    C   C173  0.500000  0.000000  0.714000  0.170937
    C   C174  0.000000  0.500000  0.714000  0.170834
    C   C175  0.500000  0.000000  0.286000  0.170920
    C   C176  0.000000  0.500000  0.286000  0.170894
    C   C177  0.000000  0.500000  0.214000  0.170882
    C   C178  0.500000  0.000000  0.214000  0.171032
    C   C179  0.000000  0.500000  0.786000  0.170903
    C   C180  0.500000  0.000000  0.786000  0.170929
    C   C181  0.718021  0.959640  0.478678  -0.121416
    C   C182  0.500000  0.000000  0.565998  0.802995
    C   C183  0.040361  0.718021  0.478678  -0.121426
    C   C184  0.281979  0.040361  0.478678  -0.121440
    C   C185  0.959640  0.281979  0.478678  -0.121465
    C   C186  0.718021  0.040361  0.521322  -0.121426
    C   C187  0.040361  0.281979  0.521322  -0.121436
    C   C188  0.281979  0.959640  0.521322  -0.121454
    C   C189  0.959640  0.718021  0.521322  -0.121441
    C   C190  0.218021  0.459640  0.978678  -0.121433
    C   C191  0.540361  0.218021  0.978678  -0.121433
    C   C192  0.781979  0.540361  0.978678  -0.121452
    Cu  Cu1   0.500000  0.060827  0.500000  0.962080
    Cu  Cu2   0.000000  0.000000  0.533792  0.951383
    Cu  Cu3   0.500000  0.500000  0.966208  0.951372
    Cu  Cu4   0.500000  0.500000  0.033792  0.951373
    Cu  Cu5   0.939173  0.500000  0.500000  0.962163
    Cu  Cu6   0.500000  0.939173  0.500000  0.962159
    Cu  Cu7   0.060827  0.500000  0.500000  0.962083
    Cu  Cu8   0.000000  0.560827  0.000000  0.962077
    Cu  Cu9   0.439173  0.000000  0.000000  0.962172
    Cu  Cu10  0.000000  0.439173  0.000000  0.962157
    Cu  Cu11  0.560827  0.000000  0.000000  0.962084
    Cu  Cu12  0.000000  0.000000  0.466208  0.951373
    H   H1    0.590896  0.038584  0.892292  0.179650
    H   H2    0.461417  0.090896  0.392292  0.179617
    H   H3    0.011598  0.339410  0.202340  -0.016469
    H   H4    0.042472  0.367921  0.161772  -0.038912
    H   H5    0.931909  0.278456  0.170839  0.000097
    H   H6    0.962362  0.305563  0.129722  -0.022158
    H   H7    0.065030  0.258786  0.143767  0.056390
    H   H8    0.003536  0.201459  0.144283  0.076860
    H   H9    0.034285  0.231049  0.184828  0.052970
    H   H10   0.339410  0.988402  0.202340  -0.016427
    H   H11   0.367921  0.957528  0.161772  -0.038914
    H   H12   0.278456  0.068091  0.170839  0.000062
    H   H13   0.909104  0.461417  0.392292  0.179614
    H   H14   0.305563  0.037638  0.129722  -0.022267
    H   H15   0.258786  0.934970  0.143767  0.056334
    H   H16   0.201459  0.996464  0.144283  0.076853
    H   H17   0.231049  0.965715  0.184829  0.053093
    H   H18   0.988402  0.660590  0.202340  -0.016453
    H   H19   0.957528  0.632080  0.161772  -0.038931
    H   H20   0.068091  0.721544  0.170839  0.000084
    H   H21   0.037638  0.694437  0.129722  -0.022164
    H   H22   0.934970  0.741214  0.143767  0.056402
    H   H23   0.996464  0.798541  0.144283  0.076856
    H   H24   0.538584  0.909104  0.392292  0.179658
    H   H25   0.965715  0.768951  0.184828  0.052969
    H   H26   0.160590  0.488402  0.297660  -0.016468
    H   H27   0.132079  0.457528  0.338228  -0.038913
    H   H28   0.221544  0.568091  0.329161  0.000096
    H   H29   0.194437  0.537638  0.370278  -0.022206
    H   H30   0.241214  0.434970  0.356233  0.056380
    H   H31   0.298541  0.496464  0.355717  0.076852
    H   H32   0.268951  0.465715  0.315171  0.053118
    H   H33   0.511598  0.160590  0.297660  -0.016484
    H   H34   0.542472  0.132079  0.338228  -0.038925
    H   H35   0.090896  0.461417  0.607708  0.179622
    H   H36   0.431910  0.221544  0.329161  0.000056
    H   H37   0.462362  0.194437  0.370278  -0.022184
    H   H38   0.565030  0.241214  0.356233  0.056392
    H   H39   0.503536  0.298541  0.355717  0.076858
    H   H40   0.534285  0.268951  0.315172  0.052975
    H   H41   0.839410  0.511598  0.297660  -0.016453
    H   H42   0.867921  0.542472  0.338228  -0.038919
    H   H43   0.778456  0.431909  0.329161  0.000094
    H   H44   0.805563  0.462362  0.370278  -0.022157
    H   H45   0.758786  0.565030  0.356233  0.056387
    H   H46   0.461417  0.909104  0.607708  0.179633
    H   H47   0.701459  0.503536  0.355717  0.076856
    H   H48   0.731049  0.534285  0.315172  0.052962
    H   H49   0.488402  0.839410  0.297660  -0.016456
    H   H50   0.457528  0.867921  0.338228  -0.038912
    H   H51   0.568091  0.778456  0.329161  0.000098
    H   H52   0.537638  0.805563  0.370278  -0.022209
    H   H53   0.434970  0.758786  0.356233  0.056370
    H   H54   0.496464  0.701459  0.355717  0.076845
    H   H55   0.465715  0.731049  0.315171  0.053107
    H   H56   0.160590  0.511598  0.702340  -0.016461
    H   H57   0.909104  0.538584  0.607708  0.179663
    H   H58   0.132080  0.542472  0.661772  -0.038929
    H   H59   0.221544  0.431910  0.670839  0.000059
    H   H60   0.194437  0.462362  0.629722  -0.022172
    H   H61   0.241214  0.565030  0.643767  0.056387
    H   H62   0.298541  0.503536  0.644283  0.076852
    H   H63   0.268951  0.534285  0.684828  0.052963
    H   H64   0.511598  0.839410  0.702340  -0.016481
    H   H65   0.542472  0.867921  0.661772  -0.038914
    H   H66   0.431909  0.778456  0.670839  0.000114
    H   H67   0.462362  0.805563  0.629722  -0.022194
    H   H68   0.538583  0.090896  0.607708  0.179615
    H   H69   0.565030  0.758786  0.643767  0.056356
    H   H70   0.503536  0.701459  0.644283  0.076834
    H   H71   0.534285  0.731049  0.684828  0.053063
    H   H72   0.839410  0.488402  0.702340  -0.016486
    H   H73   0.867921  0.457528  0.661772  -0.038921
    H   H74   0.778456  0.568090  0.670839  0.000083
    H   H75   0.805563  0.537638  0.629722  -0.022223
    H   H76   0.758786  0.434970  0.643767  0.056352
    H   H77   0.701459  0.496464  0.644283  0.076828
    H   H78   0.731049  0.465715  0.684828  0.053063
    H   H79   0.431771  0.071816  0.781766  0.079849
    H   H80   0.488402  0.160590  0.702340  -0.016448
    H   H81   0.457528  0.132080  0.661772  -0.038926
    H   H82   0.568091  0.221544  0.670839  0.000092
    H   H83   0.537638  0.194437  0.629722  -0.022151
    H   H84   0.434970  0.241214  0.643767  0.056398
    H   H85   0.496464  0.298541  0.644283  0.076860
    H   H86   0.465715  0.268951  0.684828  0.052964
    H   H87   0.928184  0.431771  0.781766  0.079866
    H   H88   0.568229  0.928184  0.781766  0.079844
    H   H89   0.961417  0.590896  0.892292  0.179637
    H   H90   0.071816  0.568230  0.781766  0.079886
    H   H91   0.431771  0.928184  0.218234  0.079861
    H   H92   0.928184  0.568229  0.218234  0.079870
    H   H93   0.568230  0.071816  0.218234  0.079884
    H   H94   0.071816  0.431771  0.218234  0.079839
    H   H95   0.931771  0.571816  0.281766  0.079867
    H   H96   0.428184  0.931771  0.281766  0.079840
    H   H97   0.068229  0.428184  0.281766  0.079843
    H   H98   0.571816  0.068229  0.281766  0.079848
    H   H99   0.931771  0.428184  0.718234  0.079841
    H   H100  0.409104  0.961417  0.892292  0.179613
    H   H101  0.428184  0.068229  0.718234  0.079863
    H   H102  0.068229  0.571816  0.718234  0.079861
    H   H103  0.571816  0.931771  0.718234  0.079841
    H   H104  0.693493  0.928075  0.461640  0.120870
    H   H105  0.071925  0.693493  0.461640  0.120875
    H   H106  0.306507  0.071925  0.461640  0.120876
    H   H107  0.928075  0.306507  0.461640  0.120891
    H   H108  0.693493  0.071925  0.538360  0.120874
    H   H109  0.071925  0.306507  0.538360  0.120873
    H   H110  0.306507  0.928075  0.538360  0.120890
    H   H111  0.038584  0.409104  0.892292  0.179647
    H   H112  0.928075  0.693493  0.538360  0.120878
    H   H113  0.193493  0.428075  0.961640  0.120868
    H   H114  0.571925  0.193493  0.961640  0.120880
    H   H115  0.806508  0.571925  0.961640  0.120882
    H   H116  0.428075  0.806507  0.961640  0.120897
    H   H117  0.193493  0.571925  0.038360  0.120876
    H   H118  0.571925  0.806507  0.038360  0.120907
    H   H119  0.806508  0.428075  0.038360  0.120871
    H   H120  0.428075  0.193493  0.038360  0.120870
    H   H121  0.806628  0.928858  0.461188  0.116877
    H   H122  0.590896  0.961417  0.107708  0.179612
    H   H123  0.071142  0.806628  0.461188  0.116897
    H   H124  0.193372  0.071142  0.461188  0.116887
    H   H125  0.928858  0.193372  0.461188  0.116879
    H   H126  0.806628  0.071142  0.538812  0.116913
    H   H127  0.071142  0.193372  0.538812  0.116887
    H   H128  0.193372  0.928858  0.538812  0.116886
    H   H129  0.928858  0.806628  0.538812  0.116828
    H   H130  0.306628  0.428858  0.961188  0.116871
    H   H131  0.571142  0.306628  0.961188  0.116889
    H   H132  0.693372  0.571142  0.961188  0.116893
    H   H133  0.961417  0.409104  0.107708  0.179616
    H   H134  0.428858  0.693372  0.961188  0.116877
    H   H135  0.306628  0.571142  0.038812  0.116889
    H   H136  0.571142  0.693372  0.038812  0.116892
    H   H137  0.693372  0.428858  0.038812  0.116876
    H   H138  0.428858  0.306628  0.038812  0.116872
    H   H139  0.660590  0.988402  0.797660  -0.016474
    H   H140  0.632079  0.957528  0.838228  -0.038914
    H   H141  0.721544  0.068091  0.829161  0.000116
    H   H142  0.694437  0.037638  0.870278  -0.022189
    H   H143  0.741214  0.934970  0.856233  0.056363
    H   H144  0.409104  0.038584  0.107708  0.179669
    H   H145  0.798541  0.996464  0.855717  0.076836
    H   H146  0.768951  0.965715  0.815172  0.053066
    H   H147  0.011598  0.660590  0.797660  -0.016450
    H   H148  0.042472  0.632080  0.838228  -0.038907
    H   H149  0.931909  0.721544  0.829161  0.000096
    H   H150  0.962362  0.694437  0.870278  -0.022196
    H   H151  0.065030  0.741214  0.856233  0.056380
    H   H152  0.003536  0.798541  0.855717  0.076850
    H   H153  0.034285  0.768951  0.815171  0.053113
    H   H154  0.339410  0.011598  0.797660  -0.016481
    H   H155  0.038584  0.590896  0.107708  0.179629
    H   H156  0.367921  0.042472  0.838228  -0.038922
    H   H157  0.278456  0.931909  0.829161  0.000083
    H   H158  0.305563  0.962362  0.870278  -0.022174
    H   H159  0.258786  0.065030  0.856233  0.056391
    H   H160  0.201459  0.003536  0.855717  0.076855
    H   H161  0.231049  0.034285  0.815172  0.052971
    H   H162  0.988402  0.339410  0.797660  -0.016419
    H   H163  0.957528  0.367921  0.838228  -0.038955
    H   H164  0.068091  0.278456  0.829161  0.000087
    H   H165  0.037639  0.305563  0.870278  -0.022194
    H   H166  0.090896  0.538584  0.392292  0.179647
    H   H167  0.934970  0.258786  0.856233  0.056363
    H   H168  0.996464  0.201459  0.855717  0.076887
    H   H169  0.965715  0.231049  0.815172  0.052962
    H   H170  0.660590  0.011598  0.202340  -0.016442
    H   H171  0.632080  0.042472  0.161772  -0.038914
    H   H172  0.721544  0.931909  0.170839  0.000098
    H   H173  0.694437  0.962362  0.129722  -0.022142
    H   H174  0.741214  0.065030  0.143767  0.056394
    H   H175  0.798541  0.003536  0.144283  0.076861
    H   H176  0.768951  0.034285  0.184828  0.052963
    O   O1    0.588667  0.051341  0.509502  -0.587417
    O   O2    0.448659  0.088667  0.009502  -0.587470
    O   O3    0.911333  0.448659  0.009502  -0.587450
    O   O4    0.551341  0.911333  0.009502  -0.587439
    O   O5    0.088667  0.448659  0.990498  -0.587462
    O   O6    0.448659  0.911333  0.990498  -0.587486
    O   O7    0.911333  0.551341  0.990498  -0.587405
    O   O8    0.551341  0.088667  0.990498  -0.587422
    O   O9    0.483207  0.051439  0.549755  -0.617695
    O   O10   0.948561  0.483207  0.549755  -0.617755
    O   O11   0.516793  0.948561  0.549755  -0.617736
    O   O12   0.948659  0.588667  0.509502  -0.587474
    O   O13   0.051439  0.516793  0.549755  -0.617695
    O   O14   0.483207  0.948561  0.450245  -0.617746
    O   O15   0.948561  0.516793  0.450245  -0.617730
    O   O16   0.516793  0.051439  0.450245  -0.617698
    O   O17   0.051439  0.483207  0.450245  -0.617717
    O   O18   0.983207  0.551439  0.049755  -0.617713
    O   O19   0.448561  0.983207  0.049755  -0.617765
    O   O20   0.016793  0.448561  0.049755  -0.617745
    O   O21   0.551439  0.016793  0.049755  -0.617690
    O   O22   0.983207  0.448561  0.950245  -0.617761
    O   O23   0.411333  0.948659  0.509502  -0.587473
    O   O24   0.448561  0.016793  0.950245  -0.617738
    O   O25   0.016793  0.551439  0.950245  -0.617704
    O   O26   0.551439  0.983207  0.950245  -0.617715
    O   O27   0.981201  0.088525  0.471578  -0.601746
    O   O28   0.911475  0.981201  0.471578  -0.601714
    O   O29   0.018799  0.911475  0.471578  -0.601788
    O   O30   0.088525  0.018799  0.471578  -0.601786
    O   O31   0.981202  0.911475  0.528422  -0.601761
    O   O32   0.911475  0.018799  0.528422  -0.601767
    O   O33   0.018799  0.088525  0.528422  -0.601813
    O   O34   0.051341  0.411333  0.509502  -0.587424
    O   O35   0.088525  0.981201  0.528422  -0.601696
    O   O36   0.481201  0.588525  0.971578  -0.601750
    O   O37   0.411475  0.481201  0.971578  -0.601741
    O   O38   0.518799  0.411475  0.971578  -0.601771
    O   O39   0.588525  0.518799  0.971578  -0.601783
    O   O40   0.481201  0.411475  0.028422  -0.601740
    O   O41   0.411475  0.518799  0.028422  -0.601773
    O   O42   0.518799  0.588525  0.028422  -0.601781
    O   O43   0.588525  0.481201  0.028422  -0.601752
    O   O44   0.601466  0.045388  0.824648  -0.486897
    O   O45   0.588667  0.948659  0.490498  -0.587472
    O   O46   0.954612  0.601466  0.824648  -0.486915
    O   O47   0.398534  0.954612  0.824648  -0.486891
    O   O48   0.045388  0.398534  0.824648  -0.486821
    O   O49   0.601466  0.954612  0.175352  -0.486887
    O   O50   0.954612  0.398534  0.175352  -0.486877
    O   O51   0.398534  0.045388  0.175352  -0.486900
    O   O52   0.045388  0.601466  0.175352  -0.486882
    O   O53   0.101466  0.545388  0.324648  -0.486914
    O   O54   0.454612  0.101466  0.324648  -0.486903
    O   O55   0.898534  0.454612  0.324648  -0.486874
    O   O56   0.948659  0.411333  0.490498  -0.587477
    O   O57   0.545388  0.898534  0.324648  -0.486893
    O   O58   0.101466  0.454612  0.675352  -0.486885
    O   O59   0.454612  0.898534  0.675352  -0.486909
    O   O60   0.898534  0.545388  0.675352  -0.486911
    O   O61   0.545388  0.101466  0.675352  -0.486884
    O   O62   0.411333  0.051341  0.490498  -0.587423
    O   O63   0.051341  0.588667  0.490498  -0.587414
    O   O64   0.088667  0.551341  0.009502  -0.587415
