# Generated by REPEAT Assigner based on pymatgen
data_DB0-m2_o1_o3_f0_nbo.sym.18
_audit_creation_date              2022-05-24
_audit_creation_method            REPEAT_Assigner
_cell_length_a                    21.536333
_cell_length_b                    21.536333
_cell_length_c                    38.542661
_cell_angle_alpha                 90.000000
_cell_angle_beta                  90.000000
_cell_angle_gamma                 90.000000
_cell_volume                      17876.612569
_symmetry_space_group_name_H-M    P1
_symmetry_Int_Tables_number       1
loop_
    _symmetry_equiv_pos_site_id
    _symmetry_equiv_pos_as_xyz
    1  x,y,z
loop_
    _atom_site_type_symbol
    _atom_site_label
    _atom_site_fract_x
    _atom_site_fract_y
    _atom_site_fract_z
    _atom_type_partial_charge
    O   O1    0.588512  0.051196  0.509593  -0.572503
    O   O2    0.948804  0.588512  0.509593  -0.572392
    O   O3    0.411488  0.948804  0.509593  -0.572464
    O   O4    0.051197  0.411488  0.509593  -0.572314
    O   O5    0.588512  0.948804  0.490407  -0.572442
    O   O6    0.948804  0.411488  0.490407  -0.572413
    O   O7    0.411488  0.051196  0.490407  -0.572460
    O   O8    0.051197  0.588512  0.490407  -0.572354
    O   O9    0.088512  0.551196  0.009593  -0.572430
    O   O10   0.448804  0.088512  0.009593  -0.572412
    O   O11   0.911488  0.448804  0.009593  -0.572402
    O   O12   0.551197  0.911488  0.009593  -0.572264
    O   O13   0.088512  0.448804  0.990407  -0.572413
    O   O14   0.448804  0.911488  0.990407  -0.572388
    O   O15   0.911488  0.551197  0.990407  -0.572261
    O   O16   0.551196  0.088512  0.990407  -0.572437
    C   C1    0.617647  0.000000  0.500000  0.702130
    C   C2    0.000000  0.617647  0.500000  0.701934
    C   C3    0.382353  0.000000  0.500000  0.702042
    C   C4    0.000000  0.382353  0.500000  0.701854
    C   C5    0.117647  0.500000  0.000000  0.702052
    C   C6    0.500000  0.117647  0.000000  0.702060
    C   C7    0.882353  0.500000  0.000000  0.701760
    C   C8    0.500000  0.882353  0.000000  0.701749
    O   O17   0.482942  0.051243  0.549574  -0.601008
    O   O18   0.948757  0.482942  0.549574  -0.600988
    O   O19   0.517058  0.948757  0.549574  -0.600997
    O   O20   0.051243  0.517058  0.549574  -0.600919
    O   O21   0.482942  0.948757  0.450426  -0.600977
    O   O22   0.948757  0.517058  0.450426  -0.601000
    O   O23   0.517058  0.051243  0.450426  -0.600954
    O   O24   0.051243  0.482942  0.450426  -0.600973
    O   O25   0.982942  0.551243  0.049574  -0.600974
    O   O26   0.448757  0.982942  0.049574  -0.600981
    O   O27   0.017058  0.448757  0.049574  -0.601013
    O   O28   0.551243  0.017058  0.049574  -0.600962
    O   O29   0.982942  0.448757  0.950426  -0.600970
    O   O30   0.448757  0.017058  0.950426  -0.601002
    O   O31   0.017058  0.551243  0.950426  -0.600966
    O   O32   0.551243  0.982942  0.950426  -0.600977
    C   C9    0.500000  0.000000  0.565844  0.694114
    C   C10   0.000000  0.500000  0.565844  0.693900
    C   C11   0.500000  0.000000  0.434156  0.693994
    C   C12   0.000000  0.500000  0.434156  0.694000
    C   C13   0.000000  0.500000  0.065844  0.694035
    C   C14   0.500000  0.000000  0.065844  0.693913
    C   C15   0.000000  0.500000  0.934156  0.693907
    C   C16   0.500000  0.000000  0.934156  0.694022
    Cu  Cu1   0.500000  0.060679  0.500000  0.948774
    Cu  Cu2   0.939321  0.500000  0.500000  0.948709
    Cu  Cu3   0.500000  0.939321  0.500000  0.948726
    Cu  Cu4   0.060679  0.500000  0.500000  0.948757
    Cu  Cu5   0.000000  0.560679  0.000000  0.948716
    Cu  Cu6   0.439321  0.000000  0.000000  0.948727
    Cu  Cu7   0.000000  0.439321  0.000000  0.948732
    Cu  Cu8   0.560679  0.000000  0.000000  0.948720
    C   C17   0.555378  0.000223  0.878127  -0.013379
    C   C18   0.999777  0.555378  0.878127  -0.013405
    C   C19   0.444622  0.999777  0.878127  -0.013364
    C   C20   0.000223  0.444622  0.878127  -0.013404
    C   C21   0.555378  0.999777  0.121873  -0.013414
    C   C22   0.999777  0.444622  0.121873  -0.013327
    C   C23   0.444622  0.000223  0.121873  -0.013381
    C   C24   0.000223  0.555378  0.121873  -0.013397
    C   C25   0.055378  0.500223  0.378127  -0.013397
    C   C26   0.499777  0.055378  0.378127  -0.013342
    C   C27   0.944622  0.499777  0.378127  -0.013360
    C   C28   0.500223  0.944622  0.378127  -0.013363
    C   C29   0.055378  0.499777  0.621873  -0.013404
    C   C30   0.499777  0.944622  0.621873  -0.013350
    C   C31   0.944622  0.500223  0.621873  -0.013341
    C   C32   0.500223  0.055378  0.621873  -0.013332
    H   H1    0.599245  0.001245  0.891720  0.116397
    H   H2    0.998755  0.599245  0.891720  0.116404
    H   H3    0.400755  0.998755  0.891720  0.116396
    H   H4    0.001245  0.400755  0.891720  0.116402
    H   H5    0.599245  0.998755  0.108280  0.116404
    H   H6    0.998755  0.400755  0.108280  0.116395
    H   H7    0.400755  0.001245  0.108280  0.116403
    H   H8    0.001245  0.599245  0.108280  0.116398
    H   H9    0.099245  0.501245  0.391720  0.116395
    H   H10   0.498755  0.099245  0.391720  0.116381
    H   H11   0.900755  0.498755  0.391720  0.116392
    H   H12   0.501245  0.900755  0.391720  0.116391
    H   H13   0.099245  0.498755  0.608280  0.116388
    H   H14   0.498755  0.900755  0.608280  0.116383
    H   H15   0.900755  0.501245  0.608280  0.116399
    H   H16   0.501245  0.099245  0.608280  0.116389
    C   C33   0.555346  0.000969  0.842370  -0.322860
    C   C34   0.999031  0.555346  0.842370  -0.322855
    C   C35   0.444654  0.999031  0.842370  -0.322871
    C   C36   0.000969  0.444654  0.842370  -0.322863
    C   C37   0.555346  0.999031  0.157630  -0.322843
    C   C38   0.999031  0.444654  0.157630  -0.322883
    C   C39   0.444654  0.000969  0.157630  -0.322879
    C   C40   0.000969  0.555346  0.157630  -0.322826
    C   C41   0.055346  0.500969  0.342370  -0.322856
    C   C42   0.499031  0.055346  0.342370  -0.322882
    C   C43   0.944654  0.499031  0.342370  -0.322888
    C   C44   0.500969  0.944654  0.342370  -0.322883
    C   C45   0.055346  0.499031  0.657630  -0.322825
    C   C46   0.499031  0.944654  0.657630  -0.322878
    C   C47   0.944654  0.500969  0.657630  -0.322896
    C   C48   0.500969  0.055346  0.657630  -0.322894
    H   H17   0.599159  0.003288  0.828772  0.168918
    H   H18   0.996712  0.599159  0.828772  0.168915
    H   H19   0.400841  0.996712  0.828772  0.168922
    H   H20   0.003288  0.400841  0.828772  0.168936
    H   H21   0.599159  0.996712  0.171228  0.168917
    H   H22   0.996712  0.400841  0.171228  0.168898
    H   H23   0.400841  0.003288  0.171228  0.168925
    H   H24   0.003288  0.599159  0.171228  0.168915
    H   H25   0.099159  0.503288  0.328772  0.168931
    H   H26   0.496712  0.099159  0.328772  0.168925
    H   H27   0.900841  0.496712  0.328772  0.168924
    H   H28   0.503288  0.900841  0.328772  0.168927
    H   H29   0.099159  0.496712  0.671228  0.168918
    H   H30   0.496712  0.900841  0.671228  0.168924
    H   H31   0.900841  0.503288  0.671228  0.168905
    H   H32   0.503288  0.099159  0.671228  0.168924
    C   C49   0.500000  0.000000  0.824213  0.494176
    C   C50   0.000000  0.500000  0.824213  0.494154
    C   C51   0.500000  0.000000  0.175787  0.494163
    C   C52   0.000000  0.500000  0.175787  0.494153
    C   C53   0.000000  0.500000  0.324213  0.494174
    C   C54   0.500000  0.000000  0.324213  0.494189
    C   C55   0.000000  0.500000  0.675787  0.494147
    C   C56   0.500000  0.000000  0.675787  0.494204
    C   C57   0.500000  0.000000  0.896180  -0.110496
    C   C58   0.000000  0.500000  0.896180  -0.110403
    C   C59   0.500000  0.000000  0.103820  -0.110415
    C   C60   0.000000  0.500000  0.103820  -0.110518
    C   C61   0.000000  0.500000  0.396180  -0.110468
    C   C62   0.500000  0.000000  0.396180  -0.110504
    C   C63   0.000000  0.500000  0.603820  -0.110442
    C   C64   0.500000  0.000000  0.603820  -0.110566
    C   C65   0.461020  0.039359  0.767877  0.257247
    C   C66   0.960641  0.461020  0.767877  0.257239
    C   C67   0.538980  0.960641  0.767877  0.257244
    C   C68   0.039359  0.538980  0.767877  0.257268
    C   C69   0.461020  0.960641  0.232123  0.257241
    C   C70   0.960641  0.538980  0.232123  0.257202
    C   C71   0.538980  0.039359  0.232123  0.257239
    C   C72   0.039359  0.461021  0.232123  0.257224
    C   C73   0.961020  0.539359  0.267877  0.257274
    C   C74   0.460641  0.961020  0.267877  0.257253
    C   C75   0.038980  0.460641  0.267877  0.257233
    C   C76   0.539359  0.038980  0.267877  0.257238
    C   C77   0.961021  0.460641  0.732123  0.257221
    C   C78   0.460641  0.038980  0.732123  0.257244
    C   C79   0.038980  0.539359  0.732123  0.257189
    C   C80   0.539359  0.961020  0.732123  0.257253
    C   C81   0.500000  0.000000  0.713931  -0.431578
    C   C82   0.000000  0.500000  0.713931  -0.431474
    C   C83   0.500000  0.000000  0.286069  -0.431568
    C   C84   0.000000  0.500000  0.286069  -0.431563
    C   C85   0.000000  0.500000  0.213931  -0.431483
    C   C86   0.500000  0.000000  0.213931  -0.431552
    C   C87   0.000000  0.500000  0.786069  -0.431552
    C   C88   0.500000  0.000000  0.786069  -0.431564
    C   C89   0.717943  0.954743  0.482155  -0.329385
    C   C90   0.045257  0.717943  0.482155  -0.329835
    C   C91   0.282057  0.045257  0.482155  -0.329588
    C   C92   0.954743  0.282057  0.482155  -0.329623
    C   C93   0.717943  0.045257  0.517845  -0.329789
    C   C94   0.045257  0.282057  0.517845  -0.329633
    C   C95   0.282057  0.954743  0.517845  -0.329620
    C   C96   0.954743  0.717943  0.517845  -0.329386
    C   C97   0.217943  0.454743  0.982155  -0.329611
    C   C98   0.545257  0.217943  0.982155  -0.329592
    C   C99   0.782057  0.545257  0.982155  -0.329667
    C   C100  0.454743  0.782057  0.982155  -0.329644
    C   C101  0.217943  0.545257  0.017845  -0.329603
    C   C102  0.545257  0.782057  0.017845  -0.329653
    C   C103  0.782057  0.454743  0.017845  -0.329625
    C   C104  0.454743  0.217943  0.017845  -0.329630
    H   H33   0.693629  0.918998  0.467928  0.173534
    H   H34   0.081002  0.693629  0.467928  0.173682
    H   H35   0.306371  0.081002  0.467928  0.173596
    H   H36   0.918998  0.306371  0.467928  0.173603
    H   H37   0.693629  0.081002  0.532072  0.173674
    H   H38   0.081002  0.306371  0.532072  0.173604
    H   H39   0.306371  0.918998  0.532072  0.173605
    H   H40   0.918998  0.693629  0.532072  0.173532
    H   H41   0.193629  0.418998  0.967928  0.173591
    H   H42   0.581002  0.193629  0.967928  0.173599
    H   H43   0.806371  0.581002  0.967928  0.173608
    H   H44   0.418998  0.806371  0.967928  0.173608
    H   H45   0.193629  0.581002  0.032072  0.173596
    H   H46   0.581002  0.806371  0.032072  0.173605
    H   H47   0.806371  0.418998  0.032072  0.173613
    H   H48   0.418998  0.193629  0.032072  0.173597
    C   C105  0.781943  0.955162  0.481761  0.462555
    C   C106  0.044838  0.781943  0.481761  0.462844
    C   C107  0.218057  0.044838  0.481761  0.462589
    C   C108  0.955162  0.218057  0.481761  0.462659
    C   C109  0.781943  0.044838  0.518239  0.462822
    C   C110  0.044838  0.218057  0.518239  0.462614
    C   C111  0.218057  0.955162  0.518239  0.462658
    C   C112  0.955162  0.781943  0.518239  0.462551
    C   C113  0.281943  0.455162  0.981761  0.462644
    C   C114  0.544838  0.281943  0.981761  0.462578
    C   C115  0.718057  0.544838  0.981761  0.462586
    C   C116  0.455162  0.718057  0.981761  0.462604
    C   C117  0.281943  0.544838  0.018239  0.462629
    C   C118  0.544838  0.718057  0.018239  0.462566
    C   C119  0.718057  0.455162  0.018239  0.462595
    C   C120  0.455162  0.281943  0.018239  0.462626
    C   C121  0.814316  0.000000  0.500000  -0.429627
    C   C122  0.000000  0.814316  0.500000  -0.429647
    C   C123  0.185684  0.000000  0.500000  -0.429747
    C   C124  0.000000  0.185684  0.500000  -0.429771
    C   C125  0.314316  0.500000  0.000000  -0.429744
    C   C126  0.500000  0.314316  0.000000  -0.429595
    C   C127  0.685684  0.500000  0.000000  -0.429651
    C   C128  0.500000  0.685684  0.000000  -0.429658
    C   C129  0.685634  0.000000  0.500000  0.047321
    C   C130  0.000000  0.685634  0.500000  0.047398
    C   C131  0.314366  0.000000  0.500000  0.047513
    C   C132  0.000000  0.314366  0.500000  0.047586
    C   C133  0.185634  0.500000  0.000000  0.047487
    C   C134  0.500000  0.185634  0.000000  0.047477
    C   C135  0.814366  0.500000  0.000000  0.047645
    C   C136  0.500000  0.814366  0.000000  0.047663
    O   O33   0.981575  0.088487  0.471624  -0.609229
    O   O34   0.911513  0.981575  0.471624  -0.609221
    O   O35   0.018426  0.911513  0.471624  -0.609288
    O   O36   0.088487  0.018426  0.471624  -0.609223
    O   O37   0.981575  0.911513  0.528376  -0.609222
    O   O38   0.911513  0.018426  0.528376  -0.609283
    O   O39   0.018426  0.088487  0.528376  -0.609227
    O   O40   0.088487  0.981575  0.528376  -0.609231
    O   O41   0.481574  0.588487  0.971624  -0.609231
    O   O42   0.411513  0.481574  0.971624  -0.609238
    O   O43   0.518426  0.411513  0.971624  -0.609197
    O   O44   0.588487  0.518426  0.971624  -0.609268
    O   O45   0.481574  0.411513  0.028376  -0.609237
    O   O46   0.411513  0.518426  0.028376  -0.609246
    O   O47   0.518426  0.588487  0.028376  -0.609197
    O   O48   0.588487  0.481575  0.028376  -0.609253
    C   C137  0.000000  0.117665  0.500000  0.874895
    C   C138  0.882335  0.000000  0.500000  0.874625
    C   C139  0.000000  0.882335  0.500000  0.874641
    C   C140  0.117665  0.000000  0.500000  0.874882
    C   C141  0.500000  0.617665  0.000000  0.874768
    C   C142  0.382335  0.500000  0.000000  0.874839
    C   C143  0.500000  0.382335  0.000000  0.874640
    C   C144  0.617665  0.500000  0.000000  0.874846
    Cu  Cu9   0.000000  0.000000  0.466287  0.947879
    Cu  Cu10  0.000000  0.000000  0.533713  0.947880
    Cu  Cu11  0.500000  0.500000  0.966287  0.947829
    Cu  Cu12  0.500000  0.500000  0.033713  0.947836
    F   F1    0.423879  0.080138  0.784810  -0.166736
    F   F2    0.919862  0.423879  0.784810  -0.166747
    F   F3    0.576121  0.919862  0.784810  -0.166736
    F   F4    0.080138  0.576121  0.784810  -0.166733
    F   F5    0.423879  0.919862  0.215190  -0.166736
    F   F6    0.919862  0.576121  0.215190  -0.166735
    F   F7    0.576121  0.080138  0.215190  -0.166732
    F   F8    0.080138  0.423879  0.215190  -0.166738
    F   F9    0.923879  0.580138  0.284810  -0.166737
    F   F10   0.419862  0.923879  0.284810  -0.166737
    F   F11   0.076121  0.419862  0.284810  -0.166743
    F   F12   0.580138  0.076121  0.284810  -0.166733
    F   F13   0.923879  0.419862  0.715190  -0.166738
    F   F14   0.419862  0.076121  0.715190  -0.166735
    F   F15   0.076121  0.580138  0.715190  -0.166731
    F   F16   0.580138  0.923879  0.715190  -0.166737
    F   F17   0.812504  0.909826  0.464346  -0.195262
    F   F18   0.090174  0.812504  0.464346  -0.195286
    F   F19   0.187496  0.090174  0.464346  -0.195236
    F   F20   0.909826  0.187496  0.464346  -0.195274
    F   F21   0.812504  0.090174  0.535654  -0.195286
    F   F22   0.090174  0.187496  0.535654  -0.195238
    F   F23   0.187496  0.909826  0.535654  -0.195274
    F   F24   0.909826  0.812504  0.535654  -0.195260
    F   F25   0.312504  0.409826  0.964346  -0.195244
    F   F26   0.590174  0.312504  0.964346  -0.195245
    F   F27   0.687496  0.590174  0.964346  -0.195226
    F   F28   0.409826  0.687496  0.964346  -0.195246
    F   F29   0.312504  0.590174  0.035654  -0.195252
    F   F30   0.590174  0.687496  0.035654  -0.195221
    F   F31   0.687496  0.409826  0.035654  -0.195269
    F   F32   0.409826  0.312504  0.035654  -0.195234
