# Generated by REPEAT Assigner based on pymatgen
data_DB0-m2_o1_o3_f0_nbo.sym.101
_audit_creation_date              2022-05-24
_audit_creation_method            REPEAT_Assigner
_cell_length_a                    21.500777
_cell_length_b                    21.500777
_cell_length_c                    38.546046
_cell_angle_alpha                 90.000000
_cell_angle_beta                  90.000000
_cell_angle_gamma                 90.000000
_cell_volume                      17819.197953
_symmetry_space_group_name_H-M    P1
_symmetry_Int_Tables_number       1
loop_
    _symmetry_equiv_pos_site_id
    _symmetry_equiv_pos_as_xyz
    1  x,y,z
loop_
    _atom_site_type_symbol
    _atom_site_label
    _atom_site_fract_x
    _atom_site_fract_y
    _atom_site_fract_z
    _atom_type_partial_charge
    C   C1    0.617577  0.999999  0.500000  1.030145
    C   C2    0.999999  0.499999  0.565842  0.804584
    C   C3    0.500255  0.782749  0.968946  0.607022
    C   C4    0.217251  0.499746  0.031054  0.607071
    C   C5    0.499745  0.782749  0.031054  0.607084
    C   C6    0.782749  0.500255  0.031054  0.607161
    C   C7    0.500254  0.217251  0.031054  0.607131
    C   C8    0.781430  0.000739  0.468993  -0.374363
    C   C9    0.999259  0.781430  0.468993  -0.374311
    C   C10   0.218569  0.999261  0.468993  -0.374205
    C   C11   0.000738  0.218569  0.468993  -0.374253
    C   C12   0.781430  0.999259  0.531007  -0.374336
    C   C13   0.499999  0.999999  0.434158  0.804474
    C   C14   0.999261  0.218569  0.531007  -0.374274
    C   C15   0.218569  0.000738  0.531007  -0.374273
    C   C16   0.000739  0.781430  0.531007  -0.374348
    C   C17   0.281431  0.500739  0.968993  -0.374337
    C   C18   0.499261  0.281431  0.968993  -0.374328
    C   C19   0.718570  0.499261  0.968993  -0.374160
    C   C20   0.500740  0.718570  0.968993  -0.374278
    C   C21   0.281431  0.499262  0.031007  -0.374238
    C   C22   0.499260  0.718570  0.031007  -0.374221
    C   C23   0.718570  0.500740  0.031007  -0.374173
    C   C24   0.999999  0.499999  0.434158  0.804570
    C   C25   0.500739  0.281431  0.031007  -0.374279
    C   C26   0.813707  0.999999  0.500000  0.024031
    C   C27   0.999999  0.813707  0.500000  0.024022
    C   C28   0.186292  0.999999  0.500000  0.024098
    C   C29   0.999999  0.186292  0.500000  0.024126
    C   C30   0.313707  0.500000  0.000000  0.023981
    C   C31   0.500000  0.313708  0.000000  0.024061
    C   C32   0.686293  0.500000  0.000000  0.024020
    C   C33   0.500000  0.686293  0.000000  0.024141
    C   C34   0.685271  0.999999  0.500000  -0.572866
    C   C35   0.000000  0.500000  0.065842  0.804294
    C   C36   0.999999  0.685271  0.500000  -0.572801
    C   C37   0.314728  0.999999  0.500000  -0.572629
    C   C38   0.999999  0.314728  0.500000  -0.572713
    C   C39   0.185272  0.500001  0.000000  -0.572636
    C   C40   0.500000  0.185272  0.000000  -0.572722
    C   C41   0.814729  0.500001  0.000000  -0.572521
    C   C42   0.500000  0.814729  0.000000  -0.572617
    C   C43   0.999999  0.118228  0.500000  0.714013
    C   C44   0.881771  0.999999  0.500000  0.714153
    C   C45   0.999999  0.881771  0.500000  0.714142
    C   C46   0.500001  0.000000  0.065842  0.804164
    C   C47   0.118228  0.999999  0.500000  0.714021
    C   C48   0.500000  0.618229  0.000000  0.714010
    C   C49   0.381772  0.500000  0.000000  0.714178
    C   C50   0.500000  0.381772  0.000000  0.714088
    C   C51   0.618229  0.500000  0.000000  0.714021
    C   C52   0.677942  0.945359  0.425644  0.340366
    C   C53   0.701005  0.942425  0.388563  0.150234
    C   C54   0.687353  0.878905  0.373351  -0.301650
    C   C55   0.054640  0.677942  0.425644  0.340391
    C   C56   0.057574  0.701005  0.388563  0.149927
    C   C57   0.000000  0.500001  0.934158  0.804341
    C   C58   0.121094  0.687354  0.373351  -0.301476
    C   C59   0.322056  0.054644  0.425645  0.340786
    C   C60   0.298990  0.057581  0.388564  0.149472
    C   C61   0.312640  0.121101  0.373353  -0.301125
    C   C62   0.945355  0.322056  0.425645  0.340602
    C   C63   0.942418  0.298990  0.388564  0.149638
    C   C64   0.878898  0.312640  0.373353  -0.301026
    C   C65   0.677942  0.054640  0.574356  0.340325
    C   C66   0.701005  0.057574  0.611437  0.150047
    C   C67   0.687354  0.121094  0.626649  -0.301490
    C   C68   0.500000  0.000001  0.934158  0.804385
    C   C69   0.054644  0.322056  0.574355  0.340799
    C   C70   0.057581  0.298990  0.611436  0.149341
    C   C71   0.121101  0.312640  0.626647  -0.301073
    C   C72   0.322056  0.945355  0.574355  0.340457
    C   C73   0.298990  0.942418  0.611436  0.149752
    C   C74   0.312640  0.878898  0.626647  -0.301109
    C   C75   0.945359  0.677942  0.574356  0.340370
    C   C76   0.942424  0.701005  0.611437  0.150215
    C   C77   0.878905  0.687354  0.626649  -0.301539
    C   C78   0.177944  0.445357  0.925645  0.340036
    C   C79   0.555029  0.993114  0.878116  -0.023932
    C   C80   0.201009  0.442420  0.888564  0.150306
    C   C81   0.187359  0.378900  0.873353  -0.301433
    C   C82   0.554644  0.177944  0.925645  0.340325
    C   C83   0.557580  0.201009  0.888564  0.150119
    C   C84   0.621100  0.187358  0.873353  -0.301468
    C   C85   0.822057  0.554642  0.925645  0.340771
    C   C86   0.798994  0.557577  0.888563  0.149460
    C   C87   0.812645  0.621096  0.873351  -0.300976
    C   C88   0.445359  0.822057  0.925645  0.340918
    C   C89   0.442424  0.798993  0.888563  0.149492
    C   C90   0.006886  0.555030  0.878116  -0.023462
    C   C91   0.378904  0.812645  0.873351  -0.301063
    C   C92   0.177944  0.554644  0.074355  0.340576
    C   C93   0.201009  0.557580  0.111436  0.149947
    C   C94   0.187358  0.621100  0.126647  -0.301569
    C   C95   0.554642  0.822057  0.074355  0.340619
    C   C96   0.557576  0.798994  0.111437  0.149514
    C   C97   0.621096  0.812645  0.126649  -0.301059
    C   C98   0.822057  0.445359  0.074355  0.340625
    C   C99   0.798993  0.442424  0.111437  0.149833
    C   C100  0.812644  0.378904  0.126648  -0.301201
    C   C101  0.444971  0.006888  0.878116  -0.023059
    C   C102  0.445357  0.177944  0.074355  0.340313
    C   C103  0.442420  0.201010  0.111436  0.150364
    C   C104  0.378900  0.187359  0.126647  -0.301601
    C   C105  0.999999  0.617577  0.500000  1.030057
    C   C106  0.993112  0.444971  0.878116  -0.023528
    C   C107  0.555030  0.006886  0.121884  -0.023457
    C   C108  0.006887  0.444971  0.121884  -0.023268
    C   C109  0.444971  0.993112  0.121884  -0.023716
    C   C110  0.993113  0.555030  0.121884  -0.023790
    C   C111  0.055029  0.493112  0.378116  -0.023818
    C   C112  0.506887  0.055028  0.378116  -0.023425
    C   C113  0.944970  0.506887  0.378116  -0.023183
    C   C114  0.493113  0.944969  0.378116  -0.023570
    C   C115  0.055028  0.506887  0.621884  -0.023486
    C   C116  0.382421  0.999999  0.500000  1.030050
    C   C117  0.506886  0.944970  0.621884  -0.023217
    C   C118  0.944969  0.493113  0.621884  -0.023562
    C   C119  0.493112  0.055029  0.621884  -0.023867
    C   C120  0.555053  0.993352  0.842370  -0.157654
    C   C121  0.006647  0.555054  0.842370  -0.157946
    C   C122  0.444947  0.006649  0.842370  -0.158272
    C   C123  0.993351  0.444948  0.842370  -0.157957
    C   C124  0.555054  0.006647  0.157630  -0.158061
    C   C125  0.006648  0.444947  0.157630  -0.158245
    C   C126  0.444948  0.993351  0.157630  -0.157824
    C   C127  0.999999  0.382421  0.500000  1.030010
    C   C128  0.993352  0.555053  0.157630  -0.157731
    C   C129  0.055053  0.493352  0.342370  -0.157738
    C   C130  0.506649  0.055051  0.342370  -0.158058
    C   C131  0.944947  0.506648  0.342370  -0.158253
    C   C132  0.493353  0.944946  0.342370  -0.157921
    C   C133  0.055051  0.506649  0.657630  -0.157886
    C   C134  0.506648  0.944947  0.657630  -0.158215
    C   C135  0.944946  0.493353  0.657630  -0.157899
    C   C136  0.493352  0.055053  0.657630  -0.157642
    C   C137  0.500000  0.000000  0.824202  0.102217
    C   C138  0.117578  0.500001  0.000000  1.029719
    C   C139  0.999999  0.500002  0.824202  0.102169
    C   C140  0.500001  0.999999  0.175798  0.102155
    C   C141  0.000000  0.500000  0.175798  0.102243
    C   C142  0.000000  0.500000  0.324202  0.102204
    C   C143  0.500001  0.999998  0.324202  0.102250
    C   C144  0.999998  0.500001  0.675798  0.102149
    C   C145  0.500000  0.000000  0.675798  0.102149
    C   C146  0.500000  0.000001  0.896179  -0.066943
    C   C147  0.999999  0.500001  0.896179  -0.067000
    C   C148  0.500001  0.000000  0.103821  -0.066791
    C   C149  0.500000  0.117578  0.000000  1.030015
    C   C150  0.000000  0.500000  0.103821  -0.066934
    C   C151  0.000000  0.499999  0.396179  -0.066998
    C   C152  0.500000  0.999999  0.396179  -0.066966
    C   C153  0.999999  0.500000  0.603821  -0.067053
    C   C154  0.499999  0.000000  0.603821  -0.066906
    C   C155  0.460815  0.039191  0.767877  -0.129533
    C   C156  0.960808  0.460817  0.767877  -0.129910
    C   C157  0.539185  0.960810  0.767877  -0.130110
    C   C158  0.039188  0.539186  0.767877  -0.129964
    C   C159  0.460816  0.960808  0.232123  -0.129887
    C   C160  0.882422  0.500001  0.000000  1.029747
    C   C161  0.960810  0.539185  0.232123  -0.130158
    C   C162  0.539186  0.039189  0.232123  -0.129828
    C   C163  0.039191  0.460815  0.232123  -0.129585
    C   C164  0.960816  0.539190  0.267877  -0.129638
    C   C165  0.460811  0.960814  0.267877  -0.129833
    C   C166  0.039185  0.460810  0.267877  -0.130194
    C   C167  0.539191  0.039183  0.267877  -0.129900
    C   C168  0.960813  0.460811  0.732123  -0.129918
    C   C169  0.460810  0.039185  0.732123  -0.130218
    C   C170  0.039183  0.539191  0.732123  -0.129817
    C   C171  0.500000  0.882422  0.000000  1.029899
    C   C172  0.539190  0.960816  0.732123  -0.129617
    C   C173  0.500000  0.000000  0.713943  0.053801
    C   C174  0.999999  0.500001  0.713943  0.053759
    C   C175  0.500001  0.999998  0.286057  0.053712
    C   C176  0.000000  0.500000  0.286057  0.053812
    C   C177  0.000000  0.500000  0.213943  0.053686
    C   C178  0.500001  0.999998  0.213943  0.053677
    C   C179  0.999998  0.500001  0.786057  0.053815
    C   C180  0.500000  0.000000  0.786057  0.053631
    C   C181  0.717250  0.000255  0.468946  0.607334
    C   C182  0.499999  0.999999  0.565842  0.804285
    C   C183  0.999744  0.717250  0.468946  0.607220
    C   C184  0.282748  0.999746  0.468946  0.607015
    C   C185  0.000253  0.282748  0.468946  0.607109
    C   C186  0.717250  0.999744  0.531054  0.607274
    C   C187  0.999746  0.282748  0.531054  0.607136
    C   C188  0.282748  0.000253  0.531054  0.607139
    C   C189  0.000255  0.717250  0.531054  0.607327
    C   C190  0.217251  0.500254  0.968946  0.607333
    C   C191  0.499746  0.217251  0.968946  0.607254
    C   C192  0.782749  0.499746  0.968946  0.606888
    Cu  Cu1   0.499999  0.060807  0.500000  0.994633
    Cu  Cu2   0.999999  0.999999  0.533911  0.923162
    Cu  Cu3   0.500000  0.500000  0.966089  0.923136
    Cu  Cu4   0.500000  0.500000  0.033911  0.923126
    Cu  Cu5   0.939191  0.499999  0.500000  0.994489
    Cu  Cu6   0.499999  0.939191  0.500000  0.994511
    Cu  Cu7   0.060807  0.499999  0.500000  0.994634
    Cu  Cu8   0.000000  0.560809  0.000000  0.994470
    Cu  Cu9   0.439192  0.000000  0.000000  0.994570
    Cu  Cu10  0.000000  0.439193  0.000000  0.994595
    Cu  Cu11  0.560808  0.000001  0.000000  0.994472
    Cu  Cu12  0.999999  0.999999  0.466089  0.923175
    H   H1    0.598794  0.988408  0.891632  0.097362
    H   H2    0.511593  0.098792  0.391632  0.097340
    H   H3    0.066978  0.372084  0.573833  -0.029926
    H   H4    0.088226  0.295840  0.558145  -0.042716
    H   H5    0.021545  0.323071  0.627037  -0.022771
    H   H6    0.048938  0.248154  0.611973  -0.018025
    H   H7    0.157524  0.289744  0.610775  0.064569
    H   H8    0.123213  0.294495  0.653548  0.073060
    H   H9    0.129170  0.363591  0.627034  0.047991
    H   H10   0.372084  0.933021  0.573833  -0.029941
    H   H11   0.295840  0.911772  0.558145  -0.042782
    H   H12   0.323072  0.978453  0.627037  -0.022874
    H   H13   0.901206  0.511592  0.391632  0.097281
    H   H14   0.248154  0.951061  0.611973  -0.018089
    H   H15   0.289744  0.842475  0.610775  0.064582
    H   H16   0.294495  0.876786  0.653548  0.073014
    H   H17   0.363591  0.870829  0.627034  0.047945
    H   H18   0.933024  0.627914  0.573833  -0.029954
    H   H19   0.911775  0.704160  0.558147  -0.042850
    H   H20   0.978461  0.676922  0.627037  -0.022789
    H   H21   0.951068  0.751841  0.611975  -0.018222
    H   H22   0.842481  0.710252  0.610779  0.064528
    H   H23   0.876795  0.705497  0.653551  0.073137
    H   H24   0.488407  0.901205  0.391632  0.097314
    H   H25   0.870836  0.636403  0.627035  0.048041
    H   H26   0.127915  0.433023  0.926167  -0.029850
    H   H27   0.204160  0.411774  0.941854  -0.042800
    H   H28   0.176927  0.478455  0.872963  -0.022827
    H   H29   0.251845  0.451063  0.888027  -0.018246
    H   H30   0.210255  0.342477  0.889225  0.064508
    H   H31   0.205504  0.376788  0.846452  0.073064
    H   H32   0.136408  0.370831  0.872966  0.048031
    H   H33   0.566978  0.127916  0.926167  -0.029845
    H   H34   0.588227  0.204160  0.941854  -0.042748
    H   H35   0.098792  0.511593  0.608368  0.097338
    H   H36   0.521545  0.176926  0.872963  -0.022741
    H   H37   0.548937  0.251844  0.888027  -0.018225
    H   H38   0.657523  0.210255  0.889224  0.064506
    H   H39   0.623211  0.205503  0.846452  0.073085
    H   H40   0.629169  0.136407  0.872966  0.048115
    H   H41   0.872085  0.566977  0.926167  -0.030002
    H   H42   0.795839  0.588225  0.941853  -0.042638
    H   H43   0.823077  0.521541  0.872963  -0.022846
    H   H44   0.748158  0.548934  0.888025  -0.018052
    H   H45   0.789747  0.657520  0.889222  0.064550
    H   H46   0.511592  0.901206  0.608368  0.097294
    H   H47   0.794502  0.623206  0.846450  0.073025
    H   H48   0.863596  0.629165  0.872965  0.047956
    H   H49   0.433024  0.872085  0.926167  -0.030198
    H   H50   0.411775  0.795840  0.941853  -0.042762
    H   H51   0.478460  0.823076  0.872963  -0.022849
    H   H52   0.451067  0.748158  0.888026  -0.018050
    H   H53   0.342481  0.789747  0.889223  0.064535
    H   H54   0.376794  0.794501  0.846450  0.073029
    H   H55   0.370835  0.863596  0.872965  0.047963
    H   H56   0.127915  0.566978  0.073833  -0.030008
    H   H57   0.901205  0.488407  0.608368  0.097298
    H   H58   0.204160  0.588227  0.058146  -0.042691
    H   H59   0.176926  0.521545  0.127037  -0.022750
    H   H60   0.251844  0.548937  0.111973  -0.018165
    H   H61   0.210255  0.657523  0.110776  0.064516
    H   H62   0.205503  0.623212  0.153549  0.073165
    H   H63   0.136407  0.629169  0.127034  0.048130
    H   H64   0.566976  0.872085  0.073833  -0.029955
    H   H65   0.588225  0.795840  0.058147  -0.042722
    H   H66   0.521540  0.823077  0.127037  -0.022820
    H   H67   0.548933  0.748158  0.111975  -0.018054
    H   H68   0.488407  0.098793  0.608368  0.097363
    H   H69   0.657519  0.789747  0.110778  0.064574
    H   H70   0.623206  0.794502  0.153550  0.073021
    H   H71   0.629165  0.863596  0.127035  0.047972
    H   H72   0.872085  0.433025  0.073833  -0.029948
    H   H73   0.795840  0.411776  0.058147  -0.042828
    H   H74   0.823076  0.478460  0.127037  -0.022920
    H   H75   0.748157  0.451066  0.111974  -0.018083
    H   H76   0.789747  0.342481  0.110777  0.064650
    H   H77   0.794500  0.376793  0.153550  0.072987
    H   H78   0.863595  0.370835  0.127035  0.047934
    H   H79   0.598951  0.989612  0.828902  0.103655
    H   H80   0.433023  0.127916  0.073833  -0.030005
    H   H81   0.411774  0.204160  0.058146  -0.042798
    H   H82   0.478455  0.176928  0.127037  -0.022835
    H   H83   0.451063  0.251845  0.111973  -0.018219
    H   H84   0.342477  0.210255  0.110775  0.064532
    H   H85   0.376788  0.205504  0.153548  0.073110
    H   H86   0.370831  0.136408  0.127034  0.048074
    H   H87   0.010387  0.598953  0.828902  0.103572
    H   H88   0.401049  0.010389  0.828902  0.103420
    H   H89   0.011592  0.598794  0.891632  0.097328
    H   H90   0.989610  0.401050  0.828901  0.103515
    H   H91   0.598953  0.010387  0.171098  0.103563
    H   H92   0.010389  0.401049  0.171098  0.103436
    H   H93   0.401050  0.989610  0.171098  0.103542
    H   H94   0.989612  0.598952  0.171098  0.103676
    H   H95   0.098952  0.489612  0.328902  0.103685
    H   H96   0.510389  0.098950  0.328902  0.103562
    H   H97   0.901049  0.510388  0.328901  0.103438
    H   H98   0.489612  0.901047  0.328902  0.103495
    H   H99   0.098950  0.510389  0.671099  0.103497
    H   H100  0.401207  0.011593  0.891632  0.097241
    H   H101  0.510388  0.901049  0.671098  0.103420
    H   H102  0.901047  0.489612  0.671098  0.103538
    H   H103  0.489611  0.098951  0.671098  0.103645
    H   H104  0.430454  0.071124  0.781341  0.108987
    H   H105  0.928874  0.430455  0.781341  0.108879
    H   H106  0.569546  0.928877  0.781341  0.108804
    H   H107  0.071122  0.569547  0.781342  0.108925
    H   H108  0.430455  0.928875  0.218659  0.108856
    H   H109  0.928877  0.569546  0.218658  0.108835
    H   H110  0.569547  0.071122  0.218659  0.108936
    H   H111  0.988407  0.401207  0.891632  0.097302
    H   H112  0.071124  0.430454  0.218659  0.108956
    H   H113  0.930454  0.571124  0.281341  0.108957
    H   H114  0.428877  0.930453  0.281341  0.108850
    H   H115  0.069546  0.428876  0.281342  0.108816
    H   H116  0.571125  0.069544  0.281341  0.108916
    H   H117  0.930453  0.428878  0.718658  0.108858
    H   H118  0.428876  0.069546  0.718659  0.108812
    H   H119  0.069544  0.571125  0.718659  0.108904
    H   H120  0.571124  0.930454  0.718659  0.108955
    H   H121  0.805920  0.002724  0.444540  0.173200
    H   H122  0.598794  0.011592  0.108368  0.097351
    H   H123  0.997275  0.805920  0.444540  0.173162
    H   H124  0.194078  0.997277  0.444540  0.173099
    H   H125  0.002721  0.194078  0.444540  0.173096
    H   H126  0.805920  0.997274  0.555460  0.173176
    H   H127  0.997277  0.194078  0.555460  0.173104
    H   H128  0.194078  0.002721  0.555460  0.173104
    H   H129  0.002724  0.805920  0.555460  0.173187
    H   H130  0.305921  0.502723  0.944540  0.173170
    H   H131  0.497278  0.305921  0.944540  0.173196
    H   H132  0.694079  0.497276  0.944540  0.173070
    H   H133  0.011593  0.401207  0.108368  0.097313
    H   H134  0.502724  0.694079  0.944540  0.173096
    H   H135  0.305921  0.497278  0.055460  0.173162
    H   H136  0.497276  0.694080  0.055460  0.173085
    H   H137  0.694079  0.502724  0.055460  0.173122
    H   H138  0.502723  0.305921  0.055460  0.173184
    H   H139  0.627914  0.933024  0.426167  -0.029962
    H   H140  0.704160  0.911775  0.441853  -0.042843
    H   H141  0.676922  0.978461  0.372963  -0.022747
    H   H142  0.751840  0.951068  0.388025  -0.018252
    H   H143  0.710252  0.842482  0.389221  0.064499
    H   H144  0.401207  0.988407  0.108368  0.097352
    H   H145  0.705496  0.876795  0.346449  0.073132
    H   H146  0.636402  0.870836  0.372965  0.048149
    H   H147  0.066974  0.627914  0.426167  -0.029882
    H   H148  0.088223  0.704160  0.441853  -0.042752
    H   H149  0.021538  0.676922  0.372963  -0.022688
    H   H150  0.048931  0.751841  0.388025  -0.018197
    H   H151  0.157517  0.710252  0.389222  0.064488
    H   H152  0.123204  0.705497  0.346449  0.073164
    H   H153  0.129163  0.636403  0.372965  0.048117
    H   H154  0.372084  0.066978  0.426167  -0.030007
    H   H155  0.988408  0.598794  0.108368  0.097379
    H   H156  0.295840  0.088226  0.441855  -0.042718
    H   H157  0.323071  0.021545  0.372963  -0.022799
    H   H158  0.248154  0.048938  0.388027  -0.018061
    H   H159  0.289744  0.157524  0.389225  0.064577
    H   H160  0.294495  0.123213  0.346452  0.073063
    H   H161  0.363591  0.129170  0.372966  0.048011
    H   H162  0.933021  0.372084  0.426167  -0.030014
    H   H163  0.911772  0.295840  0.441855  -0.042801
    H   H164  0.978453  0.323072  0.372963  -0.022859
    H   H165  0.951061  0.248154  0.388027  -0.018068
    H   H166  0.098793  0.488407  0.391632  0.097365
    H   H167  0.842475  0.289744  0.389225  0.064568
    H   H168  0.876786  0.294495  0.346452  0.073004
    H   H169  0.870829  0.363591  0.372966  0.047906
    H   H170  0.627914  0.066974  0.573833  -0.029864
    H   H171  0.704160  0.088223  0.558147  -0.042750
    H   H172  0.676922  0.021538  0.627037  -0.022724
    H   H173  0.751841  0.048931  0.611975  -0.018230
    H   H174  0.710252  0.157517  0.610778  0.064485
    H   H175  0.705497  0.123204  0.653551  0.073164
    H   H176  0.636403  0.129162  0.627035  0.048101
    O   O1    0.588646  0.051350  0.509550  -0.668915
    O   O2    0.448649  0.088647  0.009550  -0.668806
    O   O3    0.911354  0.448649  0.009550  -0.668835
    O   O4    0.551352  0.911354  0.009550  -0.668813
    O   O5    0.088647  0.448649  0.990449  -0.668870
    O   O6    0.448649  0.911354  0.990450  -0.668796
    O   O7    0.911354  0.551352  0.990450  -0.668714
    O   O8    0.551352  0.088647  0.990450  -0.668859
    O   O9    0.482937  0.051328  0.549569  -0.649844
    O   O10   0.948671  0.482937  0.549569  -0.650135
    O   O11   0.517061  0.948671  0.549569  -0.650127
    O   O12   0.948648  0.588646  0.509550  -0.668969
    O   O13   0.051327  0.517061  0.549569  -0.650046
    O   O14   0.482937  0.948671  0.450431  -0.650134
    O   O15   0.948671  0.517061  0.450431  -0.650153
    O   O16   0.517061  0.051327  0.450431  -0.650075
    O   O17   0.051327  0.482937  0.450431  -0.650099
    O   O18   0.982938  0.551329  0.049569  -0.649885
    O   O19   0.448672  0.982938  0.049569  -0.650013
    O   O20   0.017062  0.448672  0.049569  -0.650158
    O   O21   0.551329  0.017062  0.049569  -0.649959
    O   O22   0.982938  0.448672  0.950431  -0.650001
    O   O23   0.411353  0.948648  0.509550  -0.668953
    O   O24   0.448672  0.017063  0.950431  -0.650033
    O   O25   0.017062  0.551329  0.950431  -0.649968
    O   O26   0.551328  0.982938  0.950431  -0.650045
    O   O27   0.983540  0.089039  0.471316  -0.586541
    O   O28   0.910959  0.983540  0.471316  -0.586577
    O   O29   0.016458  0.910959  0.471316  -0.586523
    O   O30   0.089039  0.016458  0.471316  -0.586537
    O   O31   0.983540  0.910959  0.528684  -0.586558
    O   O32   0.910959  0.016458  0.528684  -0.586531
    O   O33   0.016458  0.089039  0.528684  -0.586524
    O   O34   0.051350  0.411353  0.509551  -0.668853
    O   O35   0.089039  0.983540  0.528684  -0.586537
    O   O36   0.483541  0.589040  0.971316  -0.586518
    O   O37   0.410960  0.483541  0.971316  -0.586554
    O   O38   0.516459  0.410960  0.971316  -0.586541
    O   O39   0.589040  0.516459  0.971316  -0.586503
    O   O40   0.483541  0.410960  0.028684  -0.586562
    O   O41   0.410960  0.516459  0.028684  -0.586554
    O   O42   0.516459  0.589041  0.028684  -0.586474
    O   O43   0.589040  0.483542  0.028684  -0.586578
    O   O44   0.685507  0.005789  0.438291  -0.532386
    O   O45   0.588646  0.948648  0.490450  -0.668990
    O   O46   0.994209  0.685507  0.438291  -0.532436
    O   O47   0.314491  0.994213  0.438291  -0.532618
    O   O48   0.005786  0.314492  0.438291  -0.532429
    O   O49   0.685507  0.994209  0.561709  -0.532450
    O   O50   0.994213  0.314491  0.561709  -0.532632
    O   O51   0.314492  0.005786  0.561709  -0.532424
    O   O52   0.005789  0.685507  0.561709  -0.532409
    O   O53   0.185508  0.505788  0.938291  -0.532235
    O   O54   0.494213  0.185508  0.938291  -0.532497
    O   O55   0.814493  0.494211  0.938291  -0.532588
    O   O56   0.948648  0.411353  0.490450  -0.668912
    O   O57   0.505789  0.814493  0.938291  -0.532497
    O   O58   0.185508  0.494213  0.061709  -0.532532
    O   O59   0.494211  0.814493  0.061709  -0.532518
    O   O60   0.814492  0.505789  0.061709  -0.532546
    O   O61   0.505787  0.185508  0.061709  -0.532389
    O   O62   0.411353  0.051350  0.490450  -0.668858
    O   O63   0.051350  0.588646  0.490450  -0.668894
    O   O64   0.088647  0.551352  0.009550  -0.668716
