# Generated by REPEAT Assigner based on pymatgen
data_DB0-m2_o1_o2_f0_pcu.sym.14
_audit_creation_date              2022-05-24
_audit_creation_method            REPEAT_Assigner
_cell_length_a                    10.860540
_cell_length_b                    9.482876
_cell_length_c                    15.118630
_cell_angle_alpha                 90.000000
_cell_angle_beta                  90.005963
_cell_angle_gamma                 90.000000
_cell_volume                      1557.054852
_symmetry_space_group_name_H-M    P1
_symmetry_Int_Tables_number       1
loop_
    _symmetry_equiv_pos_site_id
    _symmetry_equiv_pos_as_xyz
    1  x,y,z
loop_
    _atom_site_type_symbol
    _atom_site_label
    _atom_site_fract_x
    _atom_site_fract_y
    _atom_site_fract_z
    _atom_type_partial_charge
    O   O1   0.320640  0.618487  0.494498  -0.559364
    O   O2   0.679322  0.380865  0.504915  -0.565174
    O   O3   0.678393  0.622781  0.496951  -0.512716
    O   O4   0.321511  0.376993  0.504284  -0.511615
    N   N1   0.497534  0.852702  0.495593  -0.522476
    N   N2   0.501865  0.146789  0.504789  -0.523017
    C   C1   0.263130  0.497689  0.499403  0.479738
    C   C2   0.736815  0.501940  0.500653  0.479390
    O   O5   0.506129  0.616866  0.370375  -0.511915
    O   O6   0.495116  0.382759  0.630010  -0.546819
    O   O7   0.501167  0.624806  0.627314  -0.513560
    O   O8   0.497195  0.374744  0.372992  -0.526160
    C   C3   0.502443  0.494991  0.330164  0.481214
    C   C4   0.497525  0.504769  0.670261  0.486238
    Cu  Cu1  0.499196  0.641065  0.498456  0.996767
    Cu  Cu2  0.500673  0.358483  0.501862  1.031328
    C   C5   0.424705  0.078557  0.449209  0.366923
    C   C6   0.573693  0.920776  0.551858  0.379958
    C   C7   0.579324  0.066554  0.554519  0.495718
    C   C8   0.422117  0.932762  0.444230  0.502995
    C   C9   0.062756  0.373953  0.494443  -0.214822
    C   C10  0.937324  0.626136  0.504615  -0.202973
    C   C11  0.935849  0.375425  0.493743  -0.108433
    C   C12  0.064326  0.624748  0.504736  -0.126095
    C   C13  0.541339  0.616103  0.096668  -0.117054
    C   C14  0.517051  0.380376  0.904263  -0.096340
    C   C15  0.478309  0.627714  0.905440  -0.119943
    C   C16  0.459582  0.382849  0.095002  -0.093604
    H   H1   0.576563  0.708562  0.063549  0.107521
    H   H2   0.536588  0.281969  0.937304  0.105041
    H   H3   0.459630  0.725182  0.939851  0.105755
    H   H4   0.422352  0.292542  0.060708  0.096760
    C   C17  0.541961  0.613706  0.187860  -0.151176
    C   C18  0.514809  0.381238  0.813256  -0.203880
    C   C19  0.479045  0.629025  0.814053  -0.176201
    C   C20  0.463207  0.379377  0.186147  -0.201466
    H   H5   0.575436  0.705156  0.223084  0.110684
    H   H6   0.529200  0.282922  0.778972  0.130166
    H   H7   0.463162  0.727378  0.779798  0.138491
    H   H8   0.430935  0.286404  0.219993  0.149856
    C   C21  0.503366  0.495138  0.233164  0.089079
    C   C22  0.497088  0.505552  0.767379  0.104399
    H   H9   0.109830  0.273961  0.490141  0.158568
    H   H10  0.890211  0.726130  0.508847  0.157150
    H   H11  0.887874  0.276423  0.487402  0.096836
    H   H12  0.112613  0.723915  0.509873  0.106178
    C   C23  0.499300  0.500992  0.049171  0.047414
    C   C24  0.498064  0.503314  0.951531  0.068349
    C   C25  0.872105  0.501352  0.499705  0.110043
    C   C26  0.127942  0.498606  0.499663  0.119710
    N   N3   0.342624  0.156207  0.394250  -0.606262
    H   H13  0.252817  0.125375  0.409440  0.265406
    H   H14  0.360704  0.129542  0.328573  0.269749
    N   N4   0.654009  0.842789  0.608060  -0.612231
    H   H15  0.744692  0.870610  0.593272  0.269560
    H   H16  0.635149  0.870486  0.673531  0.275486
    N   N5   0.670163  0.127059  0.611067  -1.092581
    H   H17  0.741499  0.169433  0.573825  0.428941
    H   H18  0.631898  0.198940  0.654708  0.438444
    N   N6   0.339924  0.872128  0.381137  -1.063751
    H   H19  0.269587  0.816449  0.411858  0.416618
    H   H20  0.387344  0.813944  0.333890  0.413154
