# Generated by REPEAT Assigner based on pymatgen
data_DB0-m2_o1_o2_f0_nbo_sqe
_audit_creation_date              2022-05-24
_audit_creation_method            REPEAT_Assigner
_cell_length_a                    21.637904
_cell_length_b                    21.637904
_cell_length_c                    30.218570
_cell_angle_alpha                 90.000000
_cell_angle_beta                  90.000000
_cell_angle_gamma                 90.000000
_cell_volume                      14148.300384
_symmetry_space_group_name_H-M    P1
_symmetry_Int_Tables_number       1
loop_
    _symmetry_equiv_pos_site_id
    _symmetry_equiv_pos_as_xyz
    1  x,y,z
loop_
    _atom_site_type_symbol
    _atom_site_label
    _atom_site_fract_x
    _atom_site_fract_y
    _atom_site_fract_z
    _atom_type_partial_charge
    O   O1    0.089390  0.447631  0.495465  -0.608919
    O   O2    0.447631  0.910610  0.495465  -0.608923
    O   O3    0.910610  0.552369  0.495465  -0.608911
    O   O4    0.552369  0.089390  0.495465  -0.608918
    O   O5    0.089390  0.552369  0.504535  -0.608914
    O   O6    0.447631  0.089390  0.504535  -0.608930
    O   O7    0.910610  0.447631  0.504535  -0.608926
    O   O8    0.552369  0.910610  0.504535  -0.608917
    O   O9    0.589390  0.947631  0.995465  -0.608912
    O   O10   0.947631  0.410610  0.995465  -0.608928
    O   O11   0.410610  0.052369  0.995465  -0.608914
    O   O12   0.052369  0.589390  0.995465  -0.608906
    O   O13   0.589390  0.052369  0.004535  -0.608904
    O   O14   0.947631  0.589390  0.004535  -0.608913
    O   O15   0.410610  0.947631  0.004535  -0.608919
    O   O16   0.052369  0.410610  0.004535  -0.608921
    C   C1    0.119247  0.500000  0.500000  0.692175
    C   C2    0.500000  0.880753  0.500000  0.692164
    C   C3    0.880753  0.500000  0.500000  0.692159
    C   C4    0.500000  0.119247  0.500000  0.692190
    C   C5    0.619247  0.000000  0.000000  0.692135
    C   C6    0.000000  0.380753  0.000000  0.692195
    C   C7    0.380753  0.000000  0.000000  0.692180
    C   C8    0.000000  0.619247  0.000000  0.692141
    O   O17   0.994149  0.447632  0.435832  -0.598597
    O   O18   0.447632  0.005851  0.435832  -0.598597
    O   O19   0.005851  0.552368  0.435832  -0.598600
    O   O20   0.552368  0.994149  0.435832  -0.598600
    O   O21   0.994149  0.552368  0.564168  -0.598594
    O   O22   0.447632  0.994149  0.564168  -0.598591
    O   O23   0.005851  0.447632  0.564168  -0.598593
    O   O24   0.552368  0.005851  0.564168  -0.598594
    O   O25   0.494149  0.947632  0.935832  -0.598599
    O   O26   0.947632  0.505851  0.935832  -0.598595
    O   O27   0.505851  0.052368  0.935832  -0.598590
    O   O28   0.052368  0.494149  0.935832  -0.598591
    O   O29   0.494149  0.052368  0.064168  -0.598602
    O   O30   0.947632  0.494149  0.064168  -0.598608
    O   O31   0.505851  0.947632  0.064168  -0.598605
    O   O32   0.052368  0.505851  0.064168  -0.598599
    C   C9    0.281838  0.539455  0.527664  -0.097873
    C   C10   0.539455  0.718162  0.527664  -0.097878
    C   C11   0.718162  0.460545  0.527664  -0.097888
    C   C12   0.460545  0.281838  0.527664  -0.097891
    C   C13   0.281838  0.460545  0.472336  -0.097860
    C   C14   0.539455  0.281838  0.472336  -0.097869
    C   C15   0.718162  0.539455  0.472336  -0.097854
    C   C16   0.460545  0.718162  0.472336  -0.097866
    C   C17   0.781838  0.039455  0.027664  -0.097874
    C   C18   0.039455  0.218162  0.027664  -0.097887
    C   C19   0.218162  0.960545  0.027664  -0.097867
    C   C20   0.960545  0.781838  0.027664  -0.097875
    C   C21   0.781838  0.960545  0.972336  -0.097858
    C   C22   0.039455  0.781838  0.972336  -0.097859
    C   C23   0.218162  0.039455  0.972336  -0.097863
    C   C24   0.960545  0.218162  0.972336  -0.097869
    C   C25   0.000000  0.500000  0.414297  0.699659
    C   C26   0.500000  0.000000  0.414297  0.699656
    C   C27   0.000000  0.500000  0.585703  0.699649
    C   C28   0.500000  0.000000  0.585703  0.699644
    C   C29   0.500000  0.000000  0.914297  0.699697
    C   C30   0.000000  0.500000  0.914297  0.699691
    C   C31   0.500000  0.000000  0.085703  0.699659
    C   C32   0.000000  0.500000  0.085703  0.699656
    Cu  Cu1   0.000000  0.439381  0.500000  0.985681
    Cu  Cu2   0.439381  0.000000  0.500000  0.985683
    Cu  Cu3   0.000000  0.560619  0.500000  0.985674
    Cu  Cu4   0.560619  0.000000  0.500000  0.985677
    Cu  Cu5   0.500000  0.939381  0.000000  0.985672
    Cu  Cu6   0.939381  0.500000  0.000000  0.985674
    Cu  Cu7   0.500000  0.060619  0.000000  0.985662
    Cu  Cu8   0.060619  0.500000  0.000000  0.985664
    C   C33   0.186462  0.500000  0.500000  -0.009576
    C   C34   0.500000  0.813538  0.500000  -0.009565
    C   C35   0.813538  0.500000  0.500000  -0.009561
    C   C36   0.500000  0.186462  0.500000  -0.009579
    C   C37   0.686462  0.000000  0.000000  -0.009544
    C   C38   0.000000  0.313538  0.000000  -0.009598
    C   C39   0.313538  0.000000  0.000000  -0.009595
    C   C40   0.000000  0.686462  0.000000  -0.009547
    C   C41   0.218253  0.540585  0.526814  -0.105994
    C   C42   0.540585  0.781747  0.526814  -0.105995
    C   C43   0.781747  0.459415  0.526814  -0.105977
    C   C44   0.459415  0.218253  0.526814  -0.105977
    C   C45   0.218253  0.459415  0.473186  -0.105989
    C   C46   0.540585  0.218253  0.473186  -0.106006
    C   C47   0.781747  0.540585  0.473186  -0.106010
    C   C48   0.459415  0.781747  0.473186  -0.105990
    C   C49   0.718253  0.040585  0.026814  -0.106008
    C   C50   0.040585  0.281747  0.026814  -0.105975
    C   C51   0.281747  0.959415  0.026814  -0.105979
    C   C52   0.959415  0.718253  0.026814  -0.106008
    C   C53   0.718253  0.959415  0.973186  -0.106015
    C   C54   0.040585  0.718253  0.973186  -0.106012
    C   C55   0.281747  0.040585  0.973186  -0.105979
    C   C56   0.959415  0.281747  0.973186  -0.105982
    C   C57   0.020659  0.551111  0.297252  -0.134923
    C   C58   0.551111  0.979341  0.297252  -0.134925
    C   C59   0.979341  0.448889  0.297252  -0.135073
    C   C60   0.448889  0.020659  0.297252  -0.135070
    C   C61   0.020659  0.448889  0.702748  -0.135079
    C   C62   0.551111  0.020659  0.702748  -0.134930
    C   C63   0.979341  0.551111  0.702748  -0.134933
    C   C64   0.448889  0.979341  0.702748  -0.135081
    C   C65   0.520659  0.051111  0.797252  -0.135064
    C   C66   0.051111  0.479341  0.797252  -0.134919
    C   C67   0.479341  0.948889  0.797252  -0.134925
    C   C68   0.948889  0.520659  0.797252  -0.135069
    C   C69   0.520659  0.948889  0.202748  -0.135076
    C   C70   0.051111  0.520659  0.202748  -0.135071
    C   C71   0.479341  0.051111  0.202748  -0.134928
    C   C72   0.948889  0.479341  0.202748  -0.134932
    H   H1    0.036205  0.591799  0.279749  0.108493
    H   H2    0.591799  0.963795  0.279749  0.108493
    H   H3    0.963795  0.408201  0.279749  0.108528
    H   H4    0.408201  0.036205  0.279749  0.108528
    H   H5    0.036205  0.408201  0.720251  0.108531
    H   H6    0.591799  0.036205  0.720251  0.108496
    H   H7    0.963795  0.591799  0.720251  0.108497
    H   H8    0.408201  0.963795  0.720251  0.108532
    H   H9    0.536205  0.091799  0.779749  0.108525
    H   H10   0.091799  0.463795  0.779749  0.108492
    H   H11   0.463795  0.908201  0.779749  0.108494
    H   H12   0.908201  0.536205  0.779749  0.108526
    H   H13   0.536205  0.908201  0.220251  0.108531
    H   H14   0.091799  0.536205  0.220251  0.108529
    H   H15   0.463795  0.091799  0.220251  0.108496
    H   H16   0.908201  0.463795  0.220251  0.108497
    C   C73   0.019958  0.551417  0.342859  -0.095302
    C   C74   0.551417  0.980042  0.342859  -0.095301
    C   C75   0.980042  0.448583  0.342859  -0.095082
    C   C76   0.448583  0.019958  0.342859  -0.095086
    C   C77   0.019958  0.448583  0.657141  -0.095071
    C   C78   0.551417  0.019958  0.657141  -0.095291
    C   C79   0.980042  0.551417  0.657141  -0.095287
    C   C80   0.448583  0.980042  0.657141  -0.095070
    C   C81   0.519958  0.051417  0.842859  -0.095079
    C   C82   0.051417  0.480042  0.842859  -0.095297
    C   C83   0.480042  0.948583  0.842859  -0.095292
    C   C84   0.948583  0.519958  0.842859  -0.095078
    C   C85   0.519958  0.948583  0.157141  -0.095080
    C   C86   0.051417  0.519958  0.157141  -0.095084
    C   C87   0.480042  0.051417  0.157141  -0.095298
    C   C88   0.948583  0.480042  0.157141  -0.095298
    H   H17   0.035931  0.592044  0.360221  0.116887
    H   H18   0.592044  0.964069  0.360221  0.116886
    H   H19   0.964069  0.407956  0.360221  0.116809
    H   H20   0.407956  0.035931  0.360221  0.116811
    H   H21   0.035931  0.407956  0.639779  0.116804
    H   H22   0.592044  0.035931  0.639779  0.116880
    H   H23   0.964069  0.592044  0.639779  0.116879
    H   H24   0.407956  0.964069  0.639779  0.116803
    H   H25   0.535931  0.092044  0.860221  0.116808
    H   H26   0.092044  0.464069  0.860221  0.116884
    H   H27   0.464069  0.907956  0.860221  0.116883
    H   H28   0.907956  0.535931  0.860221  0.116808
    H   H29   0.535931  0.907956  0.139779  0.116808
    H   H30   0.092044  0.535931  0.139779  0.116809
    H   H31   0.464069  0.092044  0.139779  0.116884
    H   H32   0.907956  0.464069  0.139779  0.116884
    C   C89   0.000000  0.500000  0.365869  -0.056168
    C   C90   0.500000  0.000000  0.365869  -0.056166
    C   C91   0.000000  0.500000  0.634131  -0.056175
    C   C92   0.500000  0.000000  0.634131  -0.056170
    C   C93   0.500000  0.000000  0.865869  -0.056200
    C   C94   0.000000  0.500000  0.865869  -0.056195
    C   C95   0.500000  0.000000  0.134131  -0.056165
    C   C96   0.000000  0.500000  0.134131  -0.056163
    H   H33   0.193540  0.572182  0.548127  0.120140
    H   H34   0.572182  0.806460  0.548127  0.120139
    H   H35   0.806460  0.427818  0.548127  0.120135
    H   H36   0.427818  0.193540  0.548127  0.120137
    H   H37   0.193540  0.427818  0.451873  0.120133
    H   H38   0.572182  0.193540  0.451873  0.120143
    H   H39   0.806460  0.572182  0.451873  0.120136
    H   H40   0.427818  0.806460  0.451873  0.120132
    H   H41   0.693540  0.072182  0.048127  0.120145
    H   H42   0.072182  0.306460  0.048127  0.120134
    H   H43   0.306460  0.927818  0.048127  0.120129
    H   H44   0.927818  0.693540  0.048127  0.120146
    H   H45   0.693540  0.927818  0.951873  0.120144
    H   H46   0.072182  0.693540  0.951873  0.120143
    H   H47   0.306460  0.072182  0.951873  0.120131
    H   H48   0.927818  0.306460  0.951873  0.120134
    C   C97   0.000000  0.500000  0.274235  0.089069
    C   C98   0.500000  0.000000  0.274235  0.089069
    C   C99   0.000000  0.500000  0.725765  0.089068
    C   C100  0.500000  0.000000  0.725765  0.089067
    C   C101  0.500000  0.000000  0.774235  0.089072
    C   C102  0.000000  0.500000  0.774235  0.089070
    C   C103  0.500000  0.000000  0.225765  0.089070
    C   C104  0.000000  0.500000  0.225765  0.089070
    O   O33   0.491378  0.410716  0.537258  -0.617032
    O   O34   0.410716  0.508622  0.537258  -0.617033
    O   O35   0.508622  0.589284  0.537258  -0.617034
    O   O36   0.589284  0.491378  0.537258  -0.617034
    O   O37   0.491378  0.589284  0.462742  -0.617031
    O   O38   0.410716  0.491378  0.462742  -0.617031
    O   O39   0.508622  0.410716  0.462742  -0.617029
    O   O40   0.589284  0.508622  0.462742  -0.617034
    O   O41   0.991378  0.910716  0.037258  -0.617029
    O   O42   0.910716  0.008622  0.037258  -0.617031
    O   O43   0.008622  0.089284  0.037258  -0.617026
    O   O44   0.089284  0.991378  0.037258  -0.617028
    O   O45   0.991378  0.089284  0.962742  -0.617008
    O   O46   0.910716  0.991378  0.962742  -0.617011
    O   O47   0.008622  0.910716  0.962742  -0.617011
    O   O48   0.089284  0.008622  0.962742  -0.617008
    C   C105  0.500000  0.380831  0.500000  0.725908
    C   C106  0.380831  0.500000  0.500000  0.725915
    C   C107  0.500000  0.619169  0.500000  0.725916
    C   C108  0.619169  0.500000  0.500000  0.725920
    C   C109  0.000000  0.880831  0.000000  0.725877
    C   C110  0.880831  0.000000  0.000000  0.725882
    C   C111  0.000000  0.119169  0.000000  0.725890
    C   C112  0.119169  0.000000  0.000000  0.725898
    C   C113  0.313623  0.500000  0.500000  -0.029287
    C   C114  0.500000  0.686377  0.500000  -0.029282
    C   C115  0.686377  0.500000  0.500000  -0.029286
    C   C116  0.500000  0.313623  0.500000  -0.029266
    C   C117  0.813623  0.000000  0.000000  -0.029268
    C   C118  0.000000  0.186377  0.000000  -0.029269
    C   C119  0.186377  0.000000  0.000000  -0.029289
    C   C120  0.000000  0.813623  0.000000  -0.029264
    Cu  Cu9   0.500000  0.500000  0.543324  0.999192
    Cu  Cu10  0.500000  0.500000  0.456676  0.999185
    Cu  Cu11  0.000000  0.000000  0.043324  0.999193
    Cu  Cu12  0.000000  0.000000  0.956676  0.999164
    H   H49   0.306562  0.570782  0.549175  0.114576
    H   H50   0.570782  0.693438  0.549175  0.114578
    H   H51   0.693438  0.429218  0.549175  0.114579
    H   H52   0.429218  0.306562  0.549175  0.114578
    H   H53   0.306562  0.429218  0.450825  0.114571
    H   H54   0.570782  0.306562  0.450825  0.114573
    H   H55   0.693438  0.570782  0.450825  0.114573
    H   H56   0.429218  0.693438  0.450825  0.114574
    H   H57   0.806562  0.070782  0.049175  0.114576
    H   H58   0.070782  0.193438  0.049175  0.114578
    H   H59   0.193438  0.929218  0.049175  0.114574
    H   H60   0.929218  0.806562  0.049175  0.114575
    H   H61   0.806562  0.929218  0.950825  0.114571
    H   H62   0.070782  0.806562  0.950825  0.114571
    H   H63   0.193438  0.070782  0.950825  0.114572
    H   H64   0.929218  0.193438  0.950825  0.114572
