# Generated by REPEAT Assigner based on pymatgen
data_DB0-m2_o1_o3_f0_nbo.sym.3
_audit_creation_date              2022-05-24
_audit_creation_method            REPEAT_Assigner
_cell_length_a                    21.464773
_cell_length_b                    21.464773
_cell_length_c                    38.795069
_cell_angle_alpha                 90.000000
_cell_angle_beta                  90.000000
_cell_angle_gamma                 90.000000
_cell_volume                      17874.303761
_symmetry_space_group_name_H-M    P1
_symmetry_Int_Tables_number       1
loop_
    _symmetry_equiv_pos_site_id
    _symmetry_equiv_pos_as_xyz
    1  x,y,z
loop_
    _atom_site_type_symbol
    _atom_site_label
    _atom_site_fract_x
    _atom_site_fract_y
    _atom_site_fract_z
    _atom_type_partial_charge
    O   O1    0.588980  0.051641  0.491008  -0.461299
    O   O2    0.948358  0.588980  0.491008  -0.461326
    O   O3    0.411019  0.948358  0.491008  -0.461288
    O   O4    0.051641  0.411019  0.491008  -0.461247
    O   O5    0.588980  0.948358  0.508992  -0.461321
    O   O6    0.948358  0.411019  0.508992  -0.461309
    O   O7    0.411019  0.051641  0.508992  -0.461258
    O   O8    0.051641  0.588980  0.508992  -0.461262
    O   O9    0.088980  0.551641  0.991008  -0.461261
    O   O10   0.448358  0.088980  0.991008  -0.461297
    O   O11   0.911019  0.448358  0.991008  -0.461276
    O   O12   0.551641  0.911019  0.991008  -0.461245
    O   O13   0.088980  0.448358  0.008992  -0.461274
    O   O14   0.448358  0.911019  0.008992  -0.461277
    O   O15   0.911019  0.551641  0.008992  -0.461266
    O   O16   0.551641  0.088980  0.008992  -0.461293
    C   C1    0.618066  0.000000  0.500000  0.425948
    C   C2    0.000000  0.618066  0.500000  0.425979
    C   C3    0.381934  0.000000  0.500000  0.425859
    C   C4    0.000000  0.381934  0.500000  0.425951
    C   C5    0.118066  0.500000  0.000000  0.425837
    C   C6    0.500000  0.118066  0.000000  0.425963
    C   C7    0.881934  0.500000  0.000000  0.425813
    C   C8    0.500000  0.881934  0.000000  0.425817
    O   O17   0.516500  0.051495  0.549319  -0.630023
    O   O18   0.948504  0.516500  0.549319  -0.630071
    O   O19   0.483500  0.948504  0.549319  -0.630046
    O   O20   0.051496  0.483500  0.549319  -0.630012
    O   O21   0.516500  0.948504  0.450681  -0.630072
    O   O22   0.948504  0.483500  0.450681  -0.630070
    O   O23   0.483500  0.051495  0.450681  -0.630035
    O   O24   0.051496  0.516500  0.450681  -0.630014
    O   O25   0.016500  0.551496  0.049319  -0.630018
    O   O26   0.448504  0.016500  0.049319  -0.630044
    O   O27   0.983500  0.448504  0.049319  -0.630030
    O   O28   0.551496  0.983500  0.049319  -0.630021
    O   O29   0.016500  0.448504  0.950681  -0.629999
    O   O30   0.448504  0.983500  0.950681  -0.630032
    O   O31   0.983500  0.551496  0.950681  -0.630004
    O   O32   0.551496  0.016500  0.950681  -0.630010
    C   C9    0.500000  0.000000  0.565614  0.804450
    C   C10   0.000000  0.500000  0.565614  0.804152
    C   C11   0.500000  0.000000  0.434386  0.804365
    C   C12   0.000000  0.500000  0.434387  0.804166
    C   C13   0.000000  0.500000  0.065614  0.804479
    C   C14   0.500000  0.000000  0.065614  0.804304
    C   C15   0.000000  0.500000  0.934387  0.804440
    C   C16   0.500000  0.000000  0.934386  0.804284
    Cu  Cu1   0.500000  0.060999  0.500000  0.930933
    Cu  Cu2   0.939000  0.500000  0.500000  0.930875
    Cu  Cu3   0.500000  0.939000  0.500000  0.931095
    Cu  Cu4   0.060999  0.500000  0.500000  0.931016
    Cu  Cu5   0.000000  0.561000  0.000000  0.930967
    Cu  Cu6   0.439000  0.000000  0.000000  0.930962
    Cu  Cu7   0.000000  0.439000  0.000000  0.931019
    Cu  Cu8   0.561000  0.000000  0.000000  0.930991
    C   C17   0.552172  0.980483  0.878109  0.038109
    C   C18   0.019516  0.552172  0.878109  0.038385
    C   C19   0.447828  0.019517  0.878109  0.037666
    C   C20   0.980484  0.447828  0.878109  0.038367
    C   C21   0.552172  0.019517  0.121891  0.037668
    C   C22   0.019516  0.447828  0.121891  0.038451
    C   C23   0.447828  0.980483  0.121891  0.038138
    C   C24   0.980484  0.552172  0.121891  0.038445
    C   C25   0.052172  0.480482  0.378109  0.037406
    C   C26   0.519516  0.052172  0.378109  0.037678
    C   C27   0.947828  0.519517  0.378109  0.037419
    C   C28   0.480484  0.947828  0.378109  0.038217
    C   C29   0.052172  0.519517  0.621891  0.037415
    C   C30   0.519516  0.947828  0.621891  0.038425
    C   C31   0.947828  0.480482  0.621891  0.037417
    C   C32   0.480483  0.052172  0.621891  0.038334
    C   C33   0.552670  0.982959  0.842584  -0.204653
    C   C34   0.017040  0.552670  0.842584  -0.204721
    C   C35   0.447330  0.017041  0.842584  -0.204552
    C   C36   0.982960  0.447330  0.842584  -0.204722
    C   C37   0.552670  0.017041  0.157416  -0.204533
    C   C38   0.017040  0.447330  0.157416  -0.204754
    C   C39   0.447330  0.982959  0.157416  -0.204671
    C   C40   0.982960  0.552670  0.157416  -0.204740
    C   C41   0.052670  0.482958  0.342584  -0.204483
    C   C42   0.517040  0.052670  0.342584  -0.204533
    C   C43   0.947330  0.517041  0.342584  -0.204491
    C   C44   0.482960  0.947330  0.342584  -0.204695
    C   C45   0.052669  0.517041  0.657416  -0.204484
    C   C46   0.517040  0.947330  0.657416  -0.204747
    C   C47   0.947330  0.482959  0.657416  -0.204497
    C   C48   0.482959  0.052670  0.657416  -0.204717
    H   H1    0.595049  0.969946  0.829517  0.096788
    H   H2    0.030052  0.595050  0.829517  0.096789
    H   H3    0.404950  0.030053  0.829517  0.096735
    H   H4    0.969948  0.404950  0.829517  0.096794
    H   H5    0.595049  0.030054  0.170483  0.096718
    H   H6    0.030052  0.404950  0.170483  0.096798
    H   H7    0.404950  0.969946  0.170483  0.096797
    H   H8    0.969948  0.595050  0.170483  0.096795
    H   H9    0.095049  0.469945  0.329517  0.096726
    H   H10   0.530052  0.095049  0.329517  0.096721
    H   H11   0.904951  0.530054  0.329517  0.096729
    H   H12   0.469947  0.904950  0.329517  0.096796
    H   H13   0.095049  0.530054  0.670483  0.096721
    H   H14   0.530053  0.904950  0.670483  0.096804
    H   H15   0.904951  0.469945  0.670483  0.096730
    H   H16   0.469947  0.095049  0.670483  0.096791
    C   C49   0.500000  0.000000  0.824303  0.102084
    C   C50   0.000000  0.500000  0.824303  0.102012
    C   C51   0.500000  0.000000  0.175697  0.102082
    C   C52   0.000000  0.500000  0.175697  0.102013
    C   C53   0.000000  0.500000  0.324303  0.102166
    C   C54   0.500000  0.000000  0.324303  0.102082
    C   C55   0.000000  0.500000  0.675697  0.102180
    C   C56   0.500000  0.000000  0.675697  0.102013
    C   C57   0.500000  0.000000  0.896373  -0.142933
    C   C58   0.000000  0.500000  0.896373  -0.143490
    C   C59   0.500000  0.000000  0.103627  -0.142960
    C   C60   0.000000  0.500000  0.103627  -0.143566
    C   C61   0.000000  0.500000  0.396373  -0.142390
    C   C62   0.500000  0.000000  0.396373  -0.143009
    C   C63   0.000000  0.500000  0.603627  -0.142391
    C   C64   0.500000  0.000000  0.603627  -0.143480
    C   C65   0.461403  0.039673  0.767757  -0.142195
    C   C66   0.960327  0.461402  0.767757  -0.142413
    C   C67   0.538597  0.960327  0.767757  -0.142276
    C   C68   0.039672  0.538598  0.767757  -0.142400
    C   C69   0.461403  0.960327  0.232243  -0.142292
    C   C70   0.960327  0.538598  0.232243  -0.142405
    C   C71   0.538597  0.039673  0.232243  -0.142237
    C   C72   0.039672  0.461402  0.232243  -0.142393
    C   C73   0.961403  0.539673  0.267757  -0.142133
    C   C74   0.460327  0.961402  0.267757  -0.142309
    C   C75   0.038597  0.460327  0.267757  -0.142139
    C   C76   0.539672  0.038597  0.267757  -0.142244
    C   C77   0.961403  0.460327  0.732243  -0.142134
    C   C78   0.460327  0.038597  0.732243  -0.142370
    C   C79   0.038597  0.539673  0.732243  -0.142119
    C   C80   0.539672  0.961402  0.732243  -0.142344
    H   H17   0.431655  0.072873  0.780585  0.114510
    H   H18   0.927128  0.431654  0.780585  0.114574
    H   H19   0.568345  0.927127  0.780586  0.114548
    H   H20   0.072872  0.568346  0.780585  0.114567
    H   H21   0.431655  0.927127  0.219414  0.114545
    H   H22   0.927128  0.568346  0.219415  0.114571
    H   H23   0.568345  0.072873  0.219414  0.114520
    H   H24   0.072872  0.431654  0.219415  0.114565
    H   H25   0.931655  0.572873  0.280585  0.114499
    H   H26   0.427127  0.931654  0.280585  0.114556
    H   H27   0.068344  0.427126  0.280585  0.114502
    H   H28   0.572872  0.068345  0.280585  0.114517
    H   H29   0.931655  0.427126  0.719415  0.114501
    H   H30   0.427127  0.068345  0.719415  0.114566
    H   H31   0.068344  0.572873  0.719415  0.114495
    H   H32   0.572872  0.931654  0.719415  0.114555
    C   C81   0.500000  0.000000  0.713899  0.090459
    C   C82   0.000000  0.500000  0.713899  0.090140
    C   C83   0.500000  0.000000  0.286101  0.090332
    C   C84   0.000000  0.500000  0.286101  0.090151
    C   C85   0.000000  0.500000  0.213899  0.090480
    C   C86   0.500000  0.000000  0.213899  0.090317
    C   C87   0.000000  0.500000  0.786101  0.090477
    C   C88   0.500000  0.000000  0.786101  0.090301
    C   C89   0.718216  0.947068  0.490497  -0.087740
    C   C90   0.052932  0.718216  0.490497  -0.087686
    C   C91   0.281783  0.052932  0.490497  -0.087760
    C   C92   0.947068  0.281783  0.490497  -0.087684
    C   C93   0.718216  0.052932  0.509503  -0.087717
    C   C94   0.052932  0.281783  0.509503  -0.087675
    C   C95   0.281783  0.947068  0.509503  -0.087771
    C   C96   0.947068  0.718216  0.509503  -0.087674
    C   C97   0.218216  0.447068  0.990497  -0.087795
    C   C98   0.552932  0.218216  0.990497  -0.087672
    C   C99   0.781783  0.552932  0.990497  -0.087791
    C   C100  0.447068  0.781783  0.990497  -0.087780
    C   C101  0.218216  0.552932  0.009503  -0.087777
    C   C102  0.552932  0.781783  0.009503  -0.087770
    C   C103  0.781783  0.447068  0.009503  -0.087779
    C   C104  0.447068  0.218216  0.009503  -0.087701
    H   H33   0.693382  0.905531  0.482800  0.092395
    H   H34   0.094468  0.693382  0.482799  0.092373
    H   H35   0.306617  0.094468  0.482799  0.092385
    H   H36   0.905531  0.306617  0.482799  0.092369
    H   H37   0.693382  0.094468  0.517200  0.092387
    H   H38   0.094468  0.306617  0.517201  0.092364
    H   H39   0.306617  0.905531  0.517200  0.092393
    H   H40   0.905531  0.693382  0.517201  0.092370
    H   H41   0.193382  0.405531  0.982800  0.092403
    H   H42   0.594468  0.193383  0.982799  0.092370
    H   H43   0.806617  0.594468  0.982800  0.092395
    H   H44   0.405531  0.806617  0.982799  0.092383
    H   H45   0.193382  0.594468  0.017200  0.092395
    H   H46   0.594468  0.806617  0.017201  0.092379
    H   H47   0.806617  0.405531  0.017200  0.092392
    H   H48   0.405531  0.193383  0.017201  0.092377
    C   C105  0.782402  0.947655  0.489588  -0.118626
    C   C106  0.052344  0.782402  0.489588  -0.118602
    C   C107  0.217597  0.052344  0.489588  -0.118594
    C   C108  0.947655  0.217597  0.489588  -0.118622
    C   C109  0.782402  0.052344  0.510412  -0.118620
    C   C110  0.052344  0.217597  0.510412  -0.118608
    C   C111  0.217597  0.947655  0.510412  -0.118611
    C   C112  0.947655  0.782402  0.510412  -0.118627
    C   C113  0.282402  0.447655  0.989588  -0.118585
    C   C114  0.552344  0.282402  0.989588  -0.118599
    C   C115  0.717597  0.552344  0.989588  -0.118570
    C   C116  0.447655  0.717597  0.989588  -0.118579
    C   C117  0.282402  0.552344  0.010412  -0.118576
    C   C118  0.552344  0.717597  0.010412  -0.118582
    C   C119  0.717597  0.447655  0.010412  -0.118607
    C   C120  0.447655  0.282402  0.010412  -0.118601
    H   H49   0.807471  0.906410  0.481630  0.125002
    H   H50   0.093590  0.807471  0.481630  0.124987
    H   H51   0.192529  0.093590  0.481630  0.124994
    H   H52   0.906410  0.192529  0.481630  0.125001
    H   H53   0.807471  0.093590  0.518370  0.124999
    H   H54   0.093590  0.192529  0.518370  0.124993
    H   H55   0.192529  0.906410  0.518370  0.125003
    H   H56   0.906410  0.807471  0.518370  0.125000
    H   H57   0.307471  0.406410  0.981630  0.124994
    H   H58   0.593590  0.307471  0.981630  0.124982
    H   H59   0.692529  0.593590  0.981630  0.124983
    H   H60   0.406410  0.692529  0.981630  0.124994
    H   H61   0.307471  0.593590  0.018370  0.124983
    H   H62   0.593590  0.692529  0.018370  0.124992
    H   H63   0.692529  0.406410  0.018370  0.125007
    H   H64   0.406410  0.307471  0.018370  0.124993
    C   C121  0.814522  0.000000  0.500000  -0.099876
    C   C122  0.000000  0.814522  0.500000  -0.099925
    C   C123  0.185477  0.000000  0.500000  -0.099904
    C   C124  0.000000  0.185477  0.500000  -0.099946
    C   C125  0.314523  0.500000  0.000000  -0.099918
    C   C126  0.500000  0.314523  0.000000  -0.099948
    C   C127  0.685477  0.500000  0.000000  -0.099912
    C   C128  0.500000  0.685477  0.000000  -0.099937
    C   C129  0.686017  0.000000  0.500000  0.141558
    C   C130  0.000000  0.686017  0.500000  0.141522
    C   C131  0.313983  0.000000  0.500000  0.141603
    C   C132  0.000000  0.313982  0.500000  0.141529
    C   C133  0.186017  0.500000  0.000000  0.141625
    C   C134  0.500000  0.186017  0.000000  0.141520
    C   C135  0.813983  0.500000  0.000000  0.141641
    C   C136  0.500000  0.813983  0.000000  0.141642
    O   O33   0.980352  0.088525  0.471958  -0.656003
    O   O34   0.911475  0.980351  0.471958  -0.656009
    O   O35   0.019648  0.911475  0.471958  -0.656007
    O   O36   0.088525  0.019648  0.471958  -0.655997
    O   O37   0.980352  0.911475  0.528042  -0.656024
    O   O38   0.911475  0.019648  0.528042  -0.656022
    O   O39   0.019648  0.088525  0.528042  -0.656012
    O   O40   0.088525  0.980352  0.528042  -0.656011
    O   O41   0.480352  0.588525  0.971958  -0.655996
    O   O42   0.411475  0.480352  0.971958  -0.655995
    O   O43   0.519648  0.411475  0.971958  -0.655994
    O   O44   0.588525  0.519648  0.971958  -0.655999
    O   O45   0.480352  0.411475  0.028042  -0.655979
    O   O46   0.411475  0.519648  0.028042  -0.655973
    O   O47   0.519648  0.588525  0.028042  -0.655982
    O   O48   0.588525  0.480352  0.028042  -0.655982
    C   C137  0.000000  0.117590  0.500000  0.841815
    C   C138  0.882409  0.000000  0.500000  0.841741
    C   C139  0.000000  0.882409  0.500000  0.841782
    C   C140  0.117590  0.000000  0.500000  0.841776
    C   C141  0.500000  0.617590  0.000000  0.841771
    C   C142  0.382409  0.500000  0.000000  0.841740
    C   C143  0.500000  0.382410  0.000000  0.841777
    C   C144  0.617590  0.500000  0.000000  0.841759
    Cu  Cu9   0.000000  0.000000  0.466595  1.009392
    Cu  Cu10  0.000000  0.000000  0.533405  1.009370
    Cu  Cu11  0.500000  0.500000  0.966595  1.009267
    Cu  Cu12  0.500000  0.500000  0.033405  1.009404
    C   C145  0.606407  0.953217  0.895305  0.182270
    C   C146  0.600234  0.898966  0.914163  -0.130842
    C   C147  0.651512  0.872644  0.929810  -0.105766
    C   C148  0.709220  0.900080  0.926352  -0.130242
    C   C149  0.715711  0.953575  0.907019  -0.138014
    C   C150  0.664451  0.979921  0.891337  -0.134906
    H   H65   0.555175  0.876922  0.916672  0.066659
    H   H66   0.646436  0.830447  0.944760  0.102682
    H   H67   0.749437  0.879458  0.938635  0.110883
    H   H68   0.761038  0.974882  0.904144  0.114518
    H   H69   0.669752  0.021958  0.876279  0.097198
    C   C151  0.046781  0.606408  0.895304  0.182196
    C   C152  0.101033  0.600235  0.914163  -0.130843
    C   C153  0.127354  0.651514  0.929810  -0.105770
    C   C154  0.099917  0.709221  0.926352  -0.130223
    C   C155  0.046421  0.715712  0.907019  -0.138034
    C   C156  0.020076  0.664451  0.891337  -0.134895
    H   H70   0.123076  0.555177  0.916671  0.066675
    H   H71   0.169551  0.646438  0.944760  0.102682
    H   H72   0.120538  0.749439  0.938635  0.110876
    H   H73   0.025114  0.761039  0.904144  0.114527
    H   H74   0.978039  0.669752  0.876279  0.097198
    C   C157  0.393592  0.046783  0.895305  0.182807
    C   C158  0.399766  0.101034  0.914163  -0.130774
    C   C159  0.348488  0.127356  0.929810  -0.105558
    C   C160  0.290780  0.099920  0.926352  -0.130468
    C   C161  0.284288  0.046424  0.907019  -0.137813
    C   C162  0.335549  0.020078  0.891337  -0.135293
    H   H75   0.444825  0.123077  0.916672  0.066537
    H   H76   0.353564  0.169553  0.944760  0.102577
    H   H77   0.250562  0.120542  0.938635  0.110907
    H   H78   0.238961  0.025118  0.904144  0.114487
    H   H79   0.330248  0.978042  0.876279  0.097307
    C   C163  0.953218  0.393592  0.895305  0.182221
    C   C164  0.898967  0.399764  0.914163  -0.130864
    C   C165  0.872646  0.348486  0.929810  -0.105741
    C   C166  0.900083  0.290779  0.926352  -0.130251
    C   C167  0.953578  0.284288  0.907019  -0.138025
    C   C168  0.979924  0.335549  0.891337  -0.134902
    H   H80   0.876923  0.444823  0.916672  0.066671
    H   H81   0.830449  0.353561  0.944760  0.102679
    H   H82   0.879461  0.250561  0.938635  0.110884
    H   H83   0.974886  0.238961  0.904144  0.114524
    H   H84   0.021960  0.330248  0.876279  0.097202
    C   C169  0.606407  0.046783  0.104695  0.182823
    C   C170  0.600234  0.101034  0.085837  -0.130878
    C   C171  0.651511  0.127356  0.070190  -0.105483
    C   C172  0.709219  0.099920  0.073648  -0.130341
    C   C173  0.715711  0.046425  0.092981  -0.137943
    C   C174  0.664451  0.020079  0.108663  -0.135232
    H   H85   0.555175  0.123077  0.083328  0.066567
    H   H86   0.646436  0.169553  0.055240  0.102543
    H   H87   0.749437  0.120542  0.061365  0.110861
    H   H88   0.761038  0.025118  0.095856  0.114516
    H   H89   0.669752  0.978042  0.123721  0.097292
    C   C175  0.046781  0.393592  0.104696  0.182237
    C   C176  0.101033  0.399764  0.085837  -0.130933
    C   C177  0.127354  0.348486  0.070190  -0.105644
    C   C178  0.099917  0.290779  0.073648  -0.130412
    C   C179  0.046421  0.284288  0.092981  -0.137798
    C   C180  0.020076  0.335549  0.108663  -0.135008
    H   H90   0.123077  0.444823  0.083329  0.066681
    H   H91   0.169551  0.353561  0.055240  0.102667
    H   H92   0.120538  0.250561  0.061365  0.110915
    H   H93   0.025114  0.238961  0.095856  0.114461
    H   H94   0.978039  0.330248  0.123721  0.097205
    C   C181  0.393592  0.953217  0.104695  0.182266
    C   C182  0.399766  0.898965  0.085837  -0.130840
    C   C183  0.348488  0.872643  0.070190  -0.105763
    C   C184  0.290780  0.900080  0.073648  -0.130252
    C   C185  0.284288  0.953575  0.092981  -0.137994
    C   C186  0.335549  0.979921  0.108663  -0.134930
    H   H95   0.444825  0.876922  0.083328  0.066658
    H   H96   0.353564  0.830447  0.055240  0.102691
    H   H97   0.250562  0.879457  0.061365  0.110872
    H   H98   0.238961  0.974881  0.095856  0.114522
    H   H99   0.330248  0.021958  0.123721  0.097204
    C   C187  0.953219  0.606408  0.104696  0.182236
    C   C188  0.898967  0.600235  0.085837  -0.130946
    C   C189  0.872646  0.651514  0.070190  -0.105646
    C   C190  0.900083  0.709221  0.073648  -0.130404
    C   C191  0.953578  0.715712  0.092981  -0.137781
    C   C192  0.979924  0.664451  0.108663  -0.135016
    H   H100  0.876923  0.555177  0.083329  0.066690
    H   H101  0.830449  0.646438  0.055240  0.102664
    H   H102  0.879461  0.749439  0.061365  0.110908
    H   H103  0.974886  0.761039  0.095856  0.114453
    H   H104  0.021961  0.669752  0.123721  0.097209
    C   C193  0.106407  0.453216  0.395305  0.182856
    C   C194  0.100233  0.398965  0.414163  -0.130748
    C   C195  0.151511  0.372642  0.429810  -0.105586
    C   C196  0.209219  0.400078  0.426352  -0.130457
    C   C197  0.215711  0.453574  0.407019  -0.137828
    C   C198  0.164450  0.479920  0.391337  -0.135273
    H   H105  0.055174  0.376922  0.416672  0.066520
    H   H106  0.146435  0.330446  0.444760  0.102584
    H   H107  0.249437  0.379456  0.438635  0.110907
    H   H108  0.261038  0.474880  0.404144  0.114488
    H   H109  0.169752  0.521957  0.376279  0.097297
    C   C199  0.546782  0.106408  0.395305  0.182802
    C   C200  0.601033  0.100235  0.414163  -0.130885
    C   C201  0.627355  0.151513  0.429810  -0.105500
    C   C202  0.599918  0.209220  0.426352  -0.130335
    C   C203  0.546422  0.215712  0.407019  -0.137961
    C   C204  0.520077  0.164451  0.391337  -0.135207
    H   H110  0.623077  0.055176  0.416672  0.066581
    H   H111  0.669551  0.146437  0.444760  0.102558
    H   H112  0.620540  0.249438  0.438635  0.110858
    H   H113  0.525116  0.261038  0.404144  0.114527
    H   H114  0.478040  0.169752  0.376279  0.097286
    C   C205  0.893593  0.546783  0.395305  0.182787
    C   C206  0.899766  0.601035  0.414163  -0.130690
    C   C207  0.848489  0.627357  0.429810  -0.105635
    C   C208  0.790781  0.599921  0.426352  -0.130306
    C   C209  0.784288  0.546426  0.407019  -0.138080
    C   C210  0.835549  0.520079  0.391337  -0.135130
    H   H115  0.944826  0.623078  0.416672  0.066503
    H   H116  0.853565  0.669554  0.444760  0.102585
    H   H117  0.750563  0.620544  0.438635  0.110865
    H   H118  0.738962  0.525120  0.404144  0.114591
    H   H119  0.830248  0.478043  0.376279  0.097260
    C   C211  0.453218  0.893592  0.395304  0.182159
    C   C212  0.398966  0.899765  0.414163  -0.130800
    C   C213  0.372645  0.848487  0.429810  -0.105780
    C   C214  0.400082  0.790779  0.426352  -0.130229
    C   C215  0.453577  0.784288  0.407019  -0.138063
    C   C216  0.479923  0.835549  0.391337  -0.134829
    H   H120  0.376923  0.944824  0.416672  0.066651
    H   H121  0.330448  0.853562  0.444760  0.102687
    H   H122  0.379460  0.750561  0.438635  0.110885
    H   H123  0.474884  0.738961  0.404144  0.114531
    H   H124  0.521959  0.830248  0.376279  0.097180
    C   C217  0.106407  0.546783  0.604695  0.182848
    C   C218  0.100233  0.601035  0.585837  -0.130753
    C   C219  0.151511  0.627357  0.570190  -0.105568
    C   C220  0.209219  0.599921  0.573648  -0.130455
    C   C221  0.215711  0.546426  0.592981  -0.137821
    C   C222  0.164450  0.520079  0.608663  -0.135287
    H   H125  0.055174  0.623078  0.583328  0.066522
    H   H126  0.146435  0.669554  0.555240  0.102576
    H   H127  0.249437  0.620544  0.561365  0.110904
    H   H128  0.261038  0.525120  0.595856  0.114486
    H   H129  0.169752  0.478043  0.623721  0.097305
    C   C223  0.546782  0.893592  0.604696  0.182135
    C   C224  0.601033  0.899765  0.585837  -0.130804
    C   C225  0.627355  0.848487  0.570190  -0.105766
    C   C226  0.599918  0.790779  0.573648  -0.130221
    C   C227  0.546423  0.784288  0.592981  -0.138065
    C   C228  0.520077  0.835549  0.608663  -0.134849
    H   H130  0.623077  0.944824  0.583328  0.066646
    H   H131  0.669552  0.853562  0.555240  0.102679
    H   H132  0.620540  0.750561  0.561365  0.110882
    H   H133  0.525116  0.738961  0.595856  0.114535
    H   H134  0.478040  0.830248  0.623721  0.097185
    C   C229  0.893592  0.453216  0.604695  0.182826
    C   C230  0.899766  0.398965  0.585837  -0.130724
    C   C231  0.848489  0.372642  0.570190  -0.105583
    C   C232  0.790781  0.400078  0.573648  -0.130460
    C   C233  0.784288  0.453574  0.592981  -0.137844
    C   C234  0.835549  0.479920  0.608663  -0.135256
    H   H135  0.944826  0.376922  0.583328  0.066510
    H   H136  0.853565  0.330446  0.555240  0.102587
    H   H137  0.750563  0.379456  0.561365  0.110909
    H   H138  0.738961  0.474880  0.595856  0.114496
    H   H139  0.830248  0.521957  0.623721  0.097293
    C   C235  0.453218  0.106408  0.604695  0.182281
    C   C236  0.398966  0.100234  0.585837  -0.130917
    C   C237  0.372645  0.151512  0.570190  -0.105702
    C   C238  0.400081  0.209220  0.573648  -0.130281
    C   C239  0.453577  0.215712  0.592981  -0.138006
    C   C240  0.479923  0.164451  0.608663  -0.134932
    H   H140  0.376923  0.055176  0.583328  0.066694
    H   H141  0.330448  0.146437  0.555240  0.102666
    H   H142  0.379459  0.249438  0.561365  0.110890
    H   H143  0.474884  0.261038  0.595856  0.114529
    H   H144  0.521959  0.169752  0.623721  0.097204
