# Generated by REPEAT Assigner based on pymatgen
data_DB0-m2_o1_o3_f0_nbo.sym.67
_audit_creation_date              2022-05-24
_audit_creation_method            REPEAT_Assigner
_cell_length_a                    21.542046
_cell_length_b                    21.542045
_cell_length_c                    38.521410
_cell_angle_alpha                 90.000000
_cell_angle_beta                  90.000000
_cell_angle_gamma                 90.000000
_cell_volume                      17876.234915
_symmetry_space_group_name_H-M    P1
_symmetry_Int_Tables_number       1
loop_
    _symmetry_equiv_pos_site_id
    _symmetry_equiv_pos_as_xyz
    1  x,y,z
loop_
    _atom_site_type_symbol
    _atom_site_label
    _atom_site_fract_x
    _atom_site_fract_y
    _atom_site_fract_z
    _atom_type_partial_charge
    O   O1    0.588615  0.051382  0.490743  -0.633205
    O   O2    0.948619  0.588615  0.490743  -0.633276
    O   O3    0.411385  0.948619  0.490743  -0.633027
    O   O4    0.051382  0.411385  0.490743  -0.633174
    O   O5    0.588615  0.948619  0.509257  -0.633166
    O   O6    0.948619  0.411385  0.509257  -0.633171
    O   O7    0.411385  0.051382  0.509257  -0.633092
    O   O8    0.051382  0.588615  0.509257  -0.633292
    O   O9    0.088615  0.551381  0.990743  -0.633155
    O   O10   0.448619  0.088615  0.990743  -0.633138
    O   O11   0.911385  0.448618  0.990743  -0.633149
    O   O12   0.551382  0.911385  0.990743  -0.633188
    O   O13   0.088615  0.448618  0.009257  -0.633171
    O   O14   0.448619  0.911385  0.009257  -0.633123
    O   O15   0.911385  0.551381  0.009257  -0.633165
    O   O16   0.551382  0.088615  0.009257  -0.633197
    C   C1    0.617629  0.000000  0.500000  0.879860
    C   C2    0.000000  0.617629  0.500000  0.880423
    C   C3    0.382371  0.000000  0.500000  0.879153
    C   C4    0.000000  0.382371  0.500000  0.879800
    C   C5    0.117629  0.500000  0.000000  0.879873
    C   C6    0.500000  0.117629  0.000000  0.879873
    C   C7    0.882371  0.500000  0.000000  0.879751
    C   C8    0.500000  0.882371  0.000000  0.879758
    O   O17   0.516551  0.051378  0.549651  -0.456185
    O   O18   0.948622  0.516551  0.549651  -0.456268
    O   O19   0.483450  0.948622  0.549651  -0.456199
    O   O20   0.051378  0.483450  0.549651  -0.456160
    O   O21   0.516551  0.948622  0.450349  -0.456178
    O   O22   0.948622  0.483450  0.450349  -0.456237
    O   O23   0.483450  0.051378  0.450349  -0.456159
    O   O24   0.051378  0.516551  0.450349  -0.456117
    O   O25   0.016551  0.551378  0.049651  -0.456209
    O   O26   0.448622  0.016550  0.049651  -0.456271
    O   O27   0.983449  0.448622  0.049651  -0.456199
    O   O28   0.551378  0.983449  0.049651  -0.456110
    O   O29   0.016551  0.448622  0.950349  -0.456161
    O   O30   0.448622  0.983449  0.950349  -0.456280
    O   O31   0.983449  0.551378  0.950349  -0.456183
    O   O32   0.551378  0.016550  0.950349  -0.456107
    C   C9    0.500000  0.000000  0.565886  0.395439
    C   C10   0.000000  0.500000  0.565886  0.395475
    C   C11   0.500000  0.000000  0.434114  0.395311
    C   C12   0.000000  0.500000  0.434114  0.395278
    C   C13   0.000000  0.500000  0.065886  0.395462
    C   C14   0.500000  0.000000  0.065886  0.395320
    C   C15   0.000000  0.500000  0.934114  0.395151
    C   C16   0.500000  0.000000  0.934114  0.395302
    Cu  Cu1   0.500000  0.060780  0.500000  0.892002
    Cu  Cu2   0.939220  0.500000  0.500000  0.892057
    Cu  Cu3   0.500000  0.939220  0.500000  0.892144
    Cu  Cu4   0.060780  0.500000  0.500000  0.892045
    Cu  Cu5   0.000000  0.560780  0.000000  0.892041
    Cu  Cu6   0.439220  0.000000  0.000000  0.892136
    Cu  Cu7   0.000000  0.439220  0.000000  0.892114
    Cu  Cu8   0.560780  0.000000  0.000000  0.892028
    C   C17   0.554904  0.993297  0.878193  -0.133075
    C   C18   0.006703  0.554904  0.878193  -0.132992
    C   C19   0.445096  0.006703  0.878193  -0.132985
    C   C20   0.993297  0.445096  0.878193  -0.133035
    C   C21   0.554904  0.006703  0.121807  -0.133032
    C   C22   0.006703  0.445096  0.121807  -0.133026
    C   C23   0.445096  0.993297  0.121807  -0.133028
    C   C24   0.993297  0.554904  0.121807  -0.133083
    C   C25   0.054905  0.493297  0.378193  -0.133016
    C   C26   0.506703  0.054905  0.378193  -0.132964
    C   C27   0.945096  0.506703  0.378193  -0.133006
    C   C28   0.493297  0.945096  0.378193  -0.132914
    C   C29   0.054905  0.506703  0.621807  -0.133070
    C   C30   0.506703  0.945096  0.621807  -0.132979
    C   C31   0.945096  0.493297  0.621807  -0.132979
    C   C32   0.493297  0.054905  0.621807  -0.132991
    H   H1    0.598352  0.987891  0.891882  0.101198
    H   H2    0.012109  0.598351  0.891882  0.101209
    H   H3    0.401648  0.012109  0.891882  0.101203
    H   H4    0.987891  0.401648  0.891882  0.101222
    H   H5    0.598352  0.012109  0.108118  0.101188
    H   H6    0.012109  0.401648  0.108118  0.101183
    H   H7    0.401648  0.987891  0.108118  0.101218
    H   H8    0.987891  0.598352  0.108118  0.101198
    H   H9    0.098352  0.487891  0.391882  0.101195
    H   H10   0.512110  0.098352  0.391882  0.101192
    H   H11   0.901649  0.512110  0.391882  0.101206
    H   H12   0.487891  0.901649  0.391882  0.101190
    H   H13   0.098352  0.512110  0.608118  0.101196
    H   H14   0.512110  0.901648  0.608118  0.101189
    H   H15   0.901649  0.487891  0.608118  0.101179
    H   H16   0.487891  0.098352  0.608118  0.101181
    C   C33   0.554913  0.993074  0.842429  -0.116299
    C   C34   0.006926  0.554913  0.842429  -0.116384
    C   C35   0.445087  0.006926  0.842429  -0.116359
    C   C36   0.993074  0.445087  0.842429  -0.116371
    C   C37   0.554913  0.006926  0.157571  -0.116323
    C   C38   0.006926  0.445087  0.157571  -0.116305
    C   C39   0.445087  0.993074  0.157571  -0.116338
    C   C40   0.993074  0.554913  0.157571  -0.116270
    C   C41   0.054913  0.493074  0.342429  -0.116317
    C   C42   0.506926  0.054913  0.342429  -0.116333
    C   C43   0.945087  0.506926  0.342429  -0.116326
    C   C44   0.493075  0.945087  0.342429  -0.116369
    C   C45   0.054913  0.506926  0.657571  -0.116260
    C   C46   0.506926  0.945087  0.657571  -0.116299
    C   C47   0.945087  0.493074  0.657571  -0.116315
    C   C48   0.493075  0.054913  0.657571  -0.116277
    H   H17   0.598709  0.988972  0.828971  0.119257
    H   H18   0.011028  0.598708  0.828971  0.119261
    H   H19   0.401292  0.011028  0.828971  0.119261
    H   H20   0.988972  0.401291  0.828971  0.119263
    H   H21   0.598709  0.011028  0.171029  0.119255
    H   H22   0.011028  0.401292  0.171029  0.119257
    H   H23   0.401292  0.988972  0.171029  0.119256
    H   H24   0.988972  0.598709  0.171029  0.119250
    H   H25   0.098709  0.488972  0.328971  0.119248
    H   H26   0.511028  0.098709  0.328971  0.119246
    H   H27   0.901292  0.511028  0.328971  0.119252
    H   H28   0.488972  0.901292  0.328971  0.119253
    H   H29   0.098709  0.511028  0.671029  0.119244
    H   H30   0.511028  0.901292  0.671029  0.119244
    H   H31   0.901292  0.488972  0.671029  0.119252
    H   H32   0.488972  0.098709  0.671029  0.119234
    C   C49   0.500000  0.000000  0.824247  0.064834
    C   C50   0.000000  0.500000  0.824247  0.064918
    C   C51   0.500000  0.000000  0.175753  0.064866
    C   C52   0.000000  0.500000  0.175753  0.064785
    C   C53   0.000000  0.500000  0.324247  0.064841
    C   C54   0.500000  0.000000  0.324247  0.064872
    C   C55   0.000000  0.500000  0.675753  0.064781
    C   C56   0.500000  0.000000  0.675753  0.064810
    C   C57   0.500000  0.000000  0.896199  0.158482
    C   C58   0.000000  0.500000  0.896199  0.158505
    C   C59   0.500000  0.000000  0.103801  0.158467
    C   C60   0.000000  0.500000  0.103801  0.158449
    C   C61   0.000000  0.500000  0.396199  0.158458
    C   C62   0.500000  0.000000  0.396199  0.158321
    C   C63   0.000000  0.500000  0.603801  0.158418
    C   C64   0.500000  0.000000  0.603801  0.158331
    C   C65   0.460912  0.039134  0.767887  -0.119510
    C   C66   0.960866  0.460912  0.767887  -0.119398
    C   C67   0.539088  0.960866  0.767887  -0.119546
    C   C68   0.039134  0.539088  0.767887  -0.119382
    C   C69   0.460912  0.960866  0.232113  -0.119418
    C   C70   0.960866  0.539088  0.232113  -0.119554
    C   C71   0.539088  0.039134  0.232113  -0.119402
    C   C72   0.039134  0.460912  0.232113  -0.119514
    C   C73   0.960912  0.539134  0.267887  -0.119282
    C   C74   0.460866  0.960912  0.267887  -0.119400
    C   C75   0.039088  0.460866  0.267887  -0.119312
    C   C76   0.539134  0.039088  0.267887  -0.119401
    C   C77   0.960912  0.460866  0.732113  -0.119423
    C   C78   0.460866  0.039088  0.732113  -0.119320
    C   C79   0.039088  0.539134  0.732113  -0.119418
    C   C80   0.539134  0.960912  0.732113  -0.119296
    H   H33   0.430639  0.071047  0.781350  0.096871
    H   H34   0.928953  0.430639  0.781350  0.096855
    H   H35   0.569361  0.928953  0.781350  0.096866
    H   H36   0.071047  0.569361  0.781350  0.096850
    H   H37   0.430639  0.928953  0.218650  0.096858
    H   H38   0.928953  0.569361  0.218650  0.096869
    H   H39   0.569361  0.071047  0.218650  0.096853
    H   H40   0.071047  0.430639  0.218650  0.096872
    H   H41   0.930639  0.571047  0.281350  0.096837
    H   H42   0.428953  0.930639  0.281350  0.096854
    H   H43   0.069361  0.428953  0.281350  0.096838
    H   H44   0.571047  0.069361  0.281350  0.096851
    H   H45   0.930639  0.428953  0.718650  0.096858
    H   H46   0.428953  0.069361  0.718650  0.096841
    H   H47   0.069361  0.571047  0.718650  0.096852
    H   H48   0.571047  0.930639  0.718650  0.096843
    C   C81   0.500000  0.000000  0.713919  0.048216
    C   C82   0.000000  0.500000  0.713919  0.048312
    C   C83   0.500000  0.000000  0.286081  0.048283
    C   C84   0.000000  0.500000  0.286081  0.048200
    C   C85   0.000000  0.500000  0.213919  0.048424
    C   C86   0.500000  0.000000  0.213919  0.048275
    C   C87   0.000000  0.500000  0.786081  0.048258
    C   C88   0.500000  0.000000  0.786081  0.048412
    C   C89   0.717833  0.975331  0.472233  0.121555
    C   C90   0.024669  0.717833  0.472233  0.122546
    C   C91   0.282167  0.024669  0.472233  0.121270
    C   C92   0.975331  0.282167  0.472233  0.121566
    C   C93   0.717833  0.024669  0.527767  0.122295
    C   C94   0.024669  0.282167  0.527767  0.122315
    C   C95   0.282167  0.975331  0.527767  0.121305
    C   C96   0.975331  0.717833  0.527767  0.122587
    C   C97   0.217833  0.475331  0.972233  0.121582
    C   C98   0.524669  0.217833  0.972233  0.122340
    C   C99   0.782167  0.524669  0.972233  0.121606
    C   C100  0.475331  0.782167  0.972233  0.121623
    C   C101  0.217833  0.524669  0.027767  0.122384
    C   C102  0.524669  0.782167  0.027767  0.122344
    C   C103  0.782167  0.475331  0.027767  0.122357
    C   C104  0.475331  0.217833  0.027767  0.121614
    C   C105  0.781808  0.976378  0.472030  -0.167222
    C   C106  0.023623  0.781808  0.472030  -0.167629
    C   C107  0.218192  0.023623  0.472030  -0.167117
    C   C108  0.976378  0.218192  0.472030  -0.167189
    C   C109  0.781808  0.023623  0.527970  -0.167558
    C   C110  0.023623  0.218192  0.527970  -0.167571
    C   C111  0.218192  0.976378  0.527970  -0.167116
    C   C112  0.976378  0.781808  0.527970  -0.167634
    C   C113  0.281808  0.476377  0.972030  -0.167236
    C   C114  0.523623  0.281808  0.972030  -0.167568
    C   C115  0.718192  0.523622  0.972030  -0.167204
    C   C116  0.476378  0.718192  0.972030  -0.167198
    C   C117  0.281808  0.523622  0.027970  -0.167586
    C   C118  0.523622  0.718192  0.027970  -0.167532
    C   C119  0.718192  0.476378  0.027970  -0.167519
    C   C120  0.476377  0.281808  0.027970  -0.167247
    H   H49   0.806033  0.957026  0.449987  0.118937
    H   H50   0.042974  0.806033  0.449987  0.119114
    H   H51   0.193967  0.042974  0.449987  0.118904
    H   H52   0.957026  0.193967  0.449987  0.118934
    H   H53   0.806033  0.042974  0.550013  0.119083
    H   H54   0.042974  0.193967  0.550013  0.119104
    H   H55   0.193967  0.957026  0.550013  0.118905
    H   H56   0.957026  0.806033  0.550013  0.119120
    H   H57   0.306033  0.457026  0.949987  0.118940
    H   H58   0.542974  0.306033  0.949987  0.119090
    H   H59   0.693967  0.542974  0.949987  0.118932
    H   H60   0.457026  0.693967  0.949987  0.118935
    H   H61   0.306033  0.542974  0.050013  0.119098
    H   H62   0.542974  0.693967  0.050013  0.119076
    H   H63   0.693967  0.457026  0.050013  0.119079
    H   H64   0.457026  0.306033  0.050013  0.118948
    C   C121  0.814157  0.000000  0.500000  -0.046054
    C   C122  0.000000  0.814157  0.500000  -0.046050
    C   C123  0.185844  0.000000  0.500000  -0.046136
    C   C124  0.000000  0.185843  0.500000  -0.046107
    C   C125  0.314157  0.500000  0.000000  -0.046063
    C   C126  0.500000  0.314157  0.000000  -0.046076
    C   C127  0.685843  0.500000  0.000000  -0.046156
    C   C128  0.500000  0.685843  0.000000  -0.046146
    C   C129  0.685459  0.000000  0.500000  -0.227042
    C   C130  0.000000  0.685459  0.500000  -0.227749
    C   C131  0.314542  0.000000  0.500000  -0.226281
    C   C132  0.000000  0.314542  0.500000  -0.227033
    C   C133  0.185458  0.500000  0.000000  -0.227119
    C   C134  0.500000  0.185458  0.000000  -0.227112
    C   C135  0.814542  0.500000  0.000000  -0.227057
    C   C136  0.500000  0.814542  0.000000  -0.227062
    O   O33   0.982285  0.088614  0.471504  -0.574893
    O   O34   0.911386  0.982285  0.471504  -0.574891
    O   O35   0.017715  0.911386  0.471504  -0.574957
    O   O36   0.088614  0.017715  0.471504  -0.574863
    O   O37   0.982285  0.911386  0.528496  -0.574936
    O   O38   0.911386  0.017715  0.528496  -0.574861
    O   O39   0.017715  0.088614  0.528496  -0.574912
    O   O40   0.088614  0.982285  0.528496  -0.574813
    O   O41   0.482285  0.588614  0.971504  -0.574885
    O   O42   0.411386  0.482285  0.971504  -0.574851
    O   O43   0.517715  0.411386  0.971504  -0.574926
    O   O44   0.588614  0.517715  0.971504  -0.574904
    O   O45   0.482285  0.411386  0.028496  -0.574837
    O   O46   0.411386  0.517715  0.028496  -0.574896
    O   O47   0.517715  0.588614  0.028496  -0.574907
    O   O48   0.588614  0.482285  0.028496  -0.574900
    C   C137  0.000000  0.117809  0.500000  0.692166
    C   C138  0.882191  0.000000  0.500000  0.692103
    C   C139  0.000000  0.882191  0.500000  0.692225
    C   C140  0.117810  0.000000  0.500000  0.692061
    C   C141  0.500000  0.617809  0.000000  0.692206
    C   C142  0.382191  0.500000  0.000000  0.692121
    C   C143  0.500000  0.382191  0.000000  0.692144
    C   C144  0.617809  0.500000  0.000000  0.692228
    Cu  Cu9   0.000000  0.000000  0.466202  0.910345
    Cu  Cu10  0.000000  0.000000  0.533798  0.910539
    Cu  Cu11  0.500000  0.500000  0.966202  0.910385
    Cu  Cu12  0.500000  0.500000  0.033798  0.910423
    C   C145  0.685682  0.947835  0.442643  0.031253
    C   C146  0.687072  0.977275  0.410855  -0.102747
    C   C147  0.661856  0.948826  0.382071  -0.270404
    C   C148  0.636154  0.890458  0.384929  0.431292
    F   F1    0.612855  0.861770  0.356473  -0.240883
    C   C149  0.634456  0.861103  0.416699  -0.305728
    C   C150  0.659437  0.889639  0.445508  -0.084281
    H   H65   0.708501  0.022432  0.408427  0.109316
    H   H66   0.662983  0.971912  0.357165  0.141518
    H   H67   0.614365  0.815305  0.418917  0.160705
    H   H68   0.659789  0.865710  0.470165  0.115804
    C   C151  0.052165  0.685682  0.442643  0.030243
    C   C152  0.022726  0.687072  0.410855  -0.102505
    C   C153  0.051174  0.661856  0.382071  -0.270446
    C   C154  0.109543  0.636154  0.384929  0.431403
    F   F2    0.138230  0.612855  0.356473  -0.240895
    C   C155  0.138898  0.634456  0.416699  -0.305789
    C   C156  0.110361  0.659437  0.445508  -0.084016
    H   H69   0.977568  0.708501  0.408427  0.109289
    H   H70   0.028089  0.662983  0.357165  0.141517
    H   H71   0.184696  0.614365  0.418917  0.160704
    H   H72   0.134291  0.659789  0.470165  0.115793
    C   C157  0.314318  0.052165  0.442643  0.031367
    C   C158  0.312929  0.022726  0.410855  -0.102544
    C   C159  0.338144  0.051174  0.382071  -0.270620
    C   C160  0.363847  0.109543  0.384929  0.431428
    F   F3    0.387145  0.138230  0.356473  -0.240901
    C   C161  0.365544  0.138897  0.416699  -0.305844
    C   C162  0.340563  0.110361  0.445508  -0.084274
    H   H73   0.291499  0.977568  0.408427  0.109247
    H   H74   0.337017  0.028089  0.357165  0.141567
    H   H75   0.385636  0.184695  0.418917  0.160730
    H   H76   0.340212  0.134291  0.470165  0.115812
    C   C163  0.947835  0.314318  0.442643  0.031115
    C   C164  0.977275  0.312929  0.410855  -0.102509
    C   C165  0.948826  0.338144  0.382071  -0.270593
    C   C166  0.890458  0.363846  0.384929  0.431422
    F   F4    0.861770  0.387145  0.356473  -0.240913
    C   C167  0.861103  0.365544  0.416699  -0.305835
    C   C168  0.889640  0.340563  0.445508  -0.084181
    H   H77   0.022432  0.291499  0.408427  0.109248
    H   H78   0.971912  0.337017  0.357165  0.141560
    H   H79   0.815305  0.385636  0.418917  0.160729
    H   H80   0.865710  0.340212  0.470165  0.115786
    C   C169  0.685682  0.052165  0.557357  0.030446
    C   C170  0.687072  0.022726  0.589145  -0.102586
    C   C171  0.661856  0.051174  0.617929  -0.270409
    C   C172  0.636154  0.109543  0.615071  0.431352
    F   F5    0.612855  0.138230  0.643527  -0.240886
    C   C173  0.634456  0.138897  0.583301  -0.305739
    C   C174  0.659437  0.110361  0.554492  -0.084087
    H   H81   0.708501  0.977568  0.591573  0.109307
    H   H82   0.662983  0.028089  0.642835  0.141513
    H   H83   0.614365  0.184695  0.581083  0.160694
    H   H84   0.659789  0.134291  0.529835  0.115791
    C   C175  0.052165  0.314318  0.557357  0.030434
    C   C176  0.022726  0.312929  0.589145  -0.102612
    C   C177  0.051174  0.338144  0.617929  -0.270450
    C   C178  0.109543  0.363846  0.615071  0.431417
    F   F6    0.138230  0.387145  0.643527  -0.240914
    C   C179  0.138898  0.365544  0.583301  -0.305783
    C   C180  0.110361  0.340563  0.554492  -0.084072
    H   H85   0.977568  0.291499  0.591573  0.109315
    H   H86   0.028089  0.337017  0.642835  0.141536
    H   H87   0.184695  0.385636  0.581083  0.160714
    H   H88   0.134291  0.340212  0.529835  0.115793
    C   C181  0.314318  0.947835  0.557357  0.031310
    C   C182  0.312929  0.977275  0.589145  -0.102553
    C   C183  0.338144  0.948826  0.617929  -0.270615
    C   C184  0.363847  0.890458  0.615071  0.431431
    F   F7    0.387145  0.861770  0.643527  -0.240908
    C   C185  0.365544  0.861103  0.583301  -0.305847
    C   C186  0.340563  0.889639  0.554492  -0.084235
    H   H89   0.291499  0.022432  0.591573  0.109257
    H   H90   0.337017  0.971912  0.642835  0.141567
    H   H91   0.385636  0.815305  0.581083  0.160734
    H   H92   0.340212  0.865710  0.529835  0.115796
    C   C187  0.947835  0.685682  0.557357  0.030179
    C   C188  0.977275  0.687072  0.589145  -0.102525
    C   C189  0.948826  0.661856  0.617929  -0.270435
    C   C190  0.890458  0.636154  0.615071  0.431396
    F   F8    0.861770  0.612855  0.643527  -0.240902
    C   C191  0.861103  0.634456  0.583301  -0.305761
    C   C192  0.889639  0.659437  0.554492  -0.083985
    H   H93   0.022432  0.708501  0.591573  0.109308
    H   H94   0.971912  0.662983  0.642835  0.141520
    H   H95   0.815305  0.614365  0.581083  0.160695
    H   H96   0.865710  0.659789  0.529835  0.115772
    C   C193  0.185682  0.447835  0.942643  0.031257
    C   C194  0.187071  0.477274  0.910855  -0.102738
    C   C195  0.161856  0.448826  0.882071  -0.270419
    C   C196  0.136154  0.390457  0.884929  0.431331
    F   F9    0.112855  0.361770  0.856473  -0.240902
    C   C197  0.134456  0.361102  0.916699  -0.305761
    C   C198  0.159437  0.389639  0.945508  -0.084271
    H   H97   0.208501  0.522432  0.908427  0.109301
    H   H98   0.162983  0.471911  0.857165  0.141527
    H   H99   0.114365  0.315305  0.918918  0.160720
    H   H100  0.159789  0.365709  0.970165  0.115800
    C   C199  0.552165  0.185682  0.942643  0.030403
    C   C200  0.522726  0.187071  0.910855  -0.102544
    C   C201  0.551174  0.161856  0.882071  -0.270454
    C   C202  0.609543  0.136154  0.884929  0.431409
    F   F10   0.638231  0.112854  0.856473  -0.240920
    C   C203  0.638898  0.134456  0.916699  -0.305783
    C   C204  0.610361  0.159437  0.945508  -0.084068
    H   H101  0.477569  0.208501  0.908427  0.109290
    H   H102  0.528089  0.162983  0.857165  0.141530
    H   H103  0.684696  0.114365  0.918918  0.160715
    H   H104  0.634291  0.159789  0.970165  0.115792
    C   C205  0.814318  0.552165  0.942643  0.031095
    C   C206  0.812929  0.522725  0.910855  -0.102473
    C   C207  0.838144  0.551174  0.882071  -0.270600
    C   C208  0.863846  0.609542  0.884929  0.431428
    F   F11   0.887145  0.638230  0.856473  -0.240917
    C   C209  0.865544  0.638897  0.916698  -0.305809
    C   C210  0.840563  0.610361  0.945508  -0.084219
    H   H105  0.791499  0.477568  0.908427  0.109239
    H   H106  0.837017  0.528088  0.857165  0.141555
    H   H107  0.885635  0.684695  0.918917  0.160719
    H   H108  0.840211  0.634290  0.970165  0.115802
    C   C211  0.447835  0.814318  0.942643  0.031060
    C   C212  0.477275  0.812929  0.910855  -0.102476
    C   C213  0.448826  0.838144  0.882071  -0.270624
    C   C214  0.390458  0.863846  0.884929  0.431440
    F   F12   0.361770  0.887145  0.856473  -0.240922
    C   C215  0.361103  0.865544  0.916698  -0.305812
    C   C216  0.389639  0.840563  0.945508  -0.084186
    H   H109  0.522432  0.791499  0.908427  0.109240
    H   H110  0.471912  0.837017  0.857165  0.141575
    H   H111  0.315305  0.885635  0.918917  0.160719
    H   H112  0.365710  0.840211  0.970165  0.115786
    C   C217  0.185682  0.552165  0.057357  0.030353
    C   C218  0.187071  0.522726  0.089145  -0.102572
    C   C219  0.161856  0.551174  0.117929  -0.270437
    C   C220  0.136154  0.609543  0.115071  0.431402
    F   F13   0.112855  0.638230  0.143527  -0.240916
    C   C221  0.134456  0.638898  0.083301  -0.305768
    C   C222  0.159437  0.610361  0.054492  -0.084037
    H   H113  0.208501  0.477568  0.091573  0.109302
    H   H114  0.162983  0.528089  0.142835  0.141529
    H   H115  0.114365  0.684695  0.081082  0.160712
    H   H116  0.159789  0.634291  0.029835  0.115769
    C   C223  0.552165  0.814318  0.057357  0.030251
    C   C224  0.522725  0.812929  0.089145  -0.102289
    C   C225  0.551174  0.838144  0.117929  -0.270625
    C   C226  0.609542  0.863846  0.115071  0.431508
    F   F14   0.638230  0.887145  0.143527  -0.240926
    C   C227  0.638897  0.865544  0.083301  -0.305862
    C   C228  0.610361  0.840563  0.054492  -0.083994
    H   H117  0.477568  0.791499  0.091573  0.109228
    H   H118  0.528088  0.837017  0.142835  0.141554
    H   H119  0.684695  0.885635  0.081083  0.160723
    H   H120  0.634290  0.840211  0.029835  0.115793
    C   C229  0.814318  0.447835  0.057358  0.030204
    C   C230  0.812929  0.477275  0.089145  -0.102283
    C   C231  0.838144  0.448826  0.117929  -0.270651
    C   C232  0.863846  0.390458  0.115071  0.431543
    F   F15   0.887145  0.361770  0.143527  -0.240939
    C   C233  0.865544  0.361103  0.083302  -0.305881
    C   C234  0.840563  0.389639  0.054492  -0.083956
    H   H121  0.791499  0.522432  0.091573  0.109229
    H   H122  0.837017  0.471912  0.142835  0.141571
    H   H123  0.885635  0.315305  0.081083  0.160726
    H   H124  0.840211  0.365710  0.029836  0.115782
    C   C235  0.447835  0.185682  0.057357  0.031222
    C   C236  0.477274  0.187071  0.089145  -0.102756
    C   C237  0.448826  0.161856  0.117929  -0.270420
    C   C238  0.390457  0.136153  0.115071  0.431319
    F   F16   0.361769  0.112854  0.143527  -0.240901
    C   C239  0.361102  0.134456  0.083301  -0.305731
    C   C240  0.389639  0.159437  0.054492  -0.084253
    H   H125  0.522432  0.208501  0.091573  0.109317
    H   H126  0.471911  0.162983  0.142835  0.141532
    H   H127  0.315304  0.114365  0.081082  0.160708
    H   H128  0.365709  0.159789  0.029835  0.115786
