# Generated by REPEAT Assigner based on pymatgen
data_DB0-m2_o1_o3_f0_nbo.sym.28_sqe
_audit_creation_date              2022-05-24
_audit_creation_method            REPEAT_Assigner
_cell_length_a                    21.525650
_cell_length_b                    21.525743
_cell_length_c                    38.679860
_cell_angle_alpha                 90.000000
_cell_angle_beta                  90.000000
_cell_angle_gamma                 90.000000
_cell_volume                      17922.530108
_symmetry_space_group_name_H-M    P1
_symmetry_Int_Tables_number       1
loop_
    _symmetry_equiv_pos_site_id
    _symmetry_equiv_pos_as_xyz
    1  x,y,z
loop_
    _atom_site_type_symbol
    _atom_site_label
    _atom_site_fract_x
    _atom_site_fract_y
    _atom_site_fract_z
    _atom_type_partial_charge
    C   C1    0.617675  0.993620  0.499864  0.774767
    C   C2    0.000000  0.500000  0.565428  0.786349
    C   C3    0.475089  0.782730  0.974151  -0.061284
    C   C4    0.218828  0.542558  0.023574  -0.010718
    C   C5    0.542646  0.781187  0.023481  -0.012804
    C   C6    0.781172  0.457442  0.023575  -0.010845
    C   C7    0.457354  0.218813  0.023481  -0.012767
    C   C8    0.783000  0.958732  0.476918  -0.114145
    C   C9    0.041190  0.783015  0.476849  -0.113775
    C   C10   0.217000  0.041268  0.476918  -0.114282
    C   C11   0.958810  0.216985  0.476849  -0.114082
    C   C12   0.781319  0.025402  0.526103  -0.082695
    C   C13   0.500000  0.000000  0.433840  0.889593
    C   C14   0.025206  0.218700  0.526148  -0.082407
    C   C15   0.218681  0.974598  0.526103  -0.082763
    C   C16   0.974794  0.781299  0.526148  -0.082344
    C   C17   0.281294  0.474760  0.973823  -0.082959
    C   C18   0.525481  0.281320  0.973885  -0.081812
    C   C19   0.718706  0.525240  0.973823  -0.082786
    C   C20   0.474519  0.718680  0.973885  -0.081913
    C   C21   0.283032  0.540911  0.023223  -0.112506
    C   C22   0.541010  0.716982  0.023144  -0.113056
    C   C23   0.716968  0.459089  0.023223  -0.112438
    C   C24   0.000000  0.500000  0.433815  0.891086
    C   C25   0.458990  0.283018  0.023144  -0.113193
    C   C26   0.814374  0.992955  0.501509  -0.086835
    C   C27   0.007084  0.814372  0.501499  -0.087224
    C   C28   0.185626  0.007045  0.501509  -0.086706
    C   C29   0.992916  0.185628  0.501499  -0.086884
    C   C30   0.314375  0.506925  0.998520  -0.086743
    C   C31   0.493125  0.314379  0.998514  -0.086738
    C   C32   0.685625  0.493076  0.998520  -0.086879
    C   C33   0.506875  0.685622  0.998514  -0.086814
    C   C34   0.685624  0.991057  0.500921  -0.088513
    C   C35   0.000000  0.500000  0.066242  0.904379
    C   C36   0.009036  0.685620  0.500900  -0.090005
    C   C37   0.314376  0.008943  0.500921  -0.088850
    C   C38   0.990964  0.314380  0.500900  -0.090097
    C   C39   0.185628  0.508854  0.999152  -0.087418
    C   C40   0.491243  0.185633  0.999128  -0.085049
    C   C41   0.814372  0.491146  0.999152  -0.087408
    C   C42   0.508757  0.814367  0.999128  -0.085167
    C   C43   0.995091  0.117635  0.501543  0.728295
    C   C44   0.882365  0.995101  0.501545  0.728790
    C   C45   0.004909  0.882365  0.501543  0.728622
    C   C46   0.500000  0.000000  0.066220  0.903397
    C   C47   0.117635  0.004898  0.501545  0.728757
    C   C48   0.504775  0.617634  0.998471  0.727290
    C   C49   0.382365  0.504787  0.998472  0.726483
    C   C50   0.495226  0.382366  0.998471  0.727179
    C   C51   0.617635  0.495213  0.998472  0.726582
    C   C52   0.611545  0.966799  0.895297  0.642465
    C   C53   0.672090  0.997010  0.886993  -0.510221
    C   C54   0.032973  0.611615  0.895316  0.639950
    C   C55   0.002548  0.672064  0.887040  -0.508129
    C   C56   0.388454  0.033201  0.895297  0.642220
    C   C57   0.000000  0.500000  0.934627  0.787938
    C   C58   0.327909  0.002990  0.886993  -0.510153
    C   C59   0.967027  0.388385  0.895316  0.640033
    C   C60   0.997452  0.327936  0.887040  -0.508155
    C   C61   0.591906  0.071078  0.104671  0.598158
    C   C62   0.658442  0.068735  0.115382  -0.495517
    C   C63   0.070970  0.408000  0.104696  0.597936
    C   C64   0.068627  0.341490  0.115454  -0.493764
    C   C65   0.408094  0.928922  0.104671  0.598216
    C   C66   0.341558  0.931265  0.115382  -0.495708
    C   C67   0.929030  0.592000  0.104696  0.598060
    C   C68   0.500000  0.000000  0.934605  0.782591
    C   C69   0.931373  0.658510  0.115454  -0.493807
    C   C70   0.091941  0.429061  0.395302  0.606141
    C   C71   0.158456  0.431044  0.384512  -0.513347
    C   C72   0.571063  0.091816  0.395339  0.606897
    C   C73   0.569119  0.158360  0.384607  -0.513639
    C   C74   0.908059  0.570939  0.395302  0.606208
    C   C75   0.841544  0.568956  0.384512  -0.513385
    C   C76   0.428938  0.908184  0.395339  0.606774
    C   C77   0.430881  0.841640  0.384607  -0.513587
    C   C78   0.111564  0.533119  0.604718  0.642227
    C   C79   0.554139  0.986923  0.878065  -0.020169
    C   C80   0.172060  0.502803  0.613012  -0.507982
    C   C81   0.533206  0.888456  0.604740  0.643230
    C   C82   0.502909  0.827951  0.613034  -0.508365
    C   C83   0.888435  0.466881  0.604718  0.642313
    C   C84   0.827940  0.497197  0.613012  -0.508004
    C   C85   0.466794  0.111544  0.604740  0.643357
    C   C86   0.497091  0.172049  0.613034  -0.508459
    C   C87   0.687101  0.921616  0.449274  0.611606
    C   C88   0.708880  0.858187  0.439507  -0.525886
    C   C89   0.078214  0.687135  0.449146  0.610180
    C   C90   0.013006  0.554157  0.878079  -0.016260
    C   C91   0.141628  0.708888  0.439332  -0.523751
    C   C92   0.312899  0.078384  0.449274  0.611510
    C   C93   0.291119  0.141814  0.439507  -0.525826
    C   C94   0.921786  0.312865  0.449147  0.610207
    C   C95   0.858372  0.291112  0.439332  -0.523695
    C   C96   0.683688  0.057634  0.553358  0.655094
    C   C97   0.699386  0.123202  0.562205  -0.508638
    C   C98   0.057210  0.316345  0.553469  0.654201
    C   C99   0.122654  0.300534  0.562539  -0.506340
    C   C100  0.316312  0.942366  0.553358  0.654839
    C   C101  0.445861  0.013078  0.878065  -0.020075
    C   C102  0.300614  0.876797  0.562205  -0.508616
    C   C103  0.942789  0.683655  0.553469  0.654254
    C   C104  0.877346  0.699466  0.562539  -0.506358
    C   C105  0.183627  0.443010  0.946421  0.655781
    C   C106  0.199580  0.377731  0.937061  -0.511729
    C   C107  0.557509  0.183682  0.946552  0.655604
    C   C108  0.622856  0.199673  0.937358  -0.509171
    C   C109  0.816373  0.556990  0.946421  0.655629
    C   C110  0.800420  0.622269  0.937061  -0.511533
    C   C111  0.442491  0.816318  0.946552  0.655529
    C   C112  0.006456  0.617671  0.499827  0.775347
    C   C113  0.986994  0.445843  0.878079  -0.016237
    C   C114  0.377143  0.800327  0.937358  -0.509193
    C   C115  0.187193  0.577851  0.050979  0.610912
    C   C116  0.208907  0.641279  0.060796  -0.530640
    C   C117  0.578102  0.812840  0.050815  0.612618
    C   C118  0.641543  0.791066  0.060567  -0.528655
    C   C119  0.812808  0.422149  0.050979  0.610946
    C   C120  0.791094  0.358721  0.060796  -0.530642
    C   C121  0.421898  0.187160  0.050815  0.612634
    C   C122  0.358457  0.208934  0.060567  -0.528653
    C   C123  0.545091  0.032888  0.122414  0.038497
    C   C124  0.032832  0.454866  0.122432  0.038106
    C   C125  0.454909  0.967112  0.122414  0.038612
    C   C126  0.967168  0.545135  0.122432  0.038040
    C   C127  0.045272  0.467512  0.377606  0.023771
    C   C128  0.532539  0.045228  0.377628  0.023449
    C   C129  0.954728  0.532488  0.377606  0.023684
    C   C130  0.467461  0.954772  0.377628  0.023612
    C   C131  0.054136  0.513095  0.621966  -0.020285
    C   C132  0.382325  0.006380  0.499863  0.775183
    C   C133  0.513147  0.945875  0.621983  -0.022310
    C   C134  0.945864  0.486904  0.621966  -0.020377
    C   C135  0.486852  0.054125  0.621983  -0.022258
    C   C136  0.553978  0.988545  0.842397  -0.171652
    C   C137  0.011416  0.553986  0.842409  -0.171804
    C   C138  0.446022  0.011455  0.842397  -0.171701
    C   C139  0.988584  0.446014  0.842409  -0.171853
    C   C140  0.544292  0.033051  0.158114  -0.178505
    C   C141  0.032998  0.455669  0.158130  -0.177688
    C   C142  0.455708  0.966949  0.158114  -0.178535
    C   C143  0.993544  0.382329  0.499827  0.775691
    C   C144  0.967003  0.544331  0.158130  -0.177639
    C   C145  0.044597  0.467425  0.341908  -0.166605
    C   C146  0.532615  0.044569  0.341928  -0.166188
    C   C147  0.955403  0.532575  0.341908  -0.166570
    C   C148  0.467385  0.955431  0.341928  -0.166289
    C   C149  0.053967  0.511522  0.657637  -0.169713
    C   C150  0.511576  0.946045  0.657651  -0.168757
    C   C151  0.946033  0.488478  0.657637  -0.169692
    C   C152  0.488423  0.053955  0.657651  -0.168825
    C   C153  0.500000  0.000000  0.824223  0.064700
    C   C154  0.117678  0.506331  0.000231  0.774508
    C   C155  0.000000  0.500000  0.824233  0.064425
    C   C156  0.500000  0.000000  0.176001  0.063435
    C   C157  0.000000  0.500000  0.176012  0.062774
    C   C158  0.000000  0.500000  0.323771  0.042314
    C   C159  0.500000  0.000000  0.323786  0.041278
    C   C160  0.000000  0.500000  0.675811  0.062152
    C   C161  0.500000  0.000000  0.675820  0.061678
    C   C162  0.500000  0.000000  0.896421  -0.059388
    C   C163  0.000000  0.500000  0.896439  -0.065855
    C   C164  0.500000  0.000000  0.104226  -0.203086
    C   C165  0.493744  0.117682  0.000194  0.772808
    C   C166  0.000000  0.500000  0.104246  -0.203210
    C   C167  0.000000  0.500000  0.395806  -0.179461
    C   C168  0.500000  0.000000  0.395828  -0.178750
    C   C169  0.000000  0.500000  0.603611  -0.060629
    C   C170  0.500000  0.000000  0.603631  -0.056312
    C   C171  0.461113  0.039293  0.767823  -0.141614
    C   C172  0.960659  0.461164  0.767829  -0.139988
    C   C173  0.538887  0.960707  0.767823  -0.141566
    C   C174  0.039340  0.538836  0.767829  -0.140026
    C   C175  0.496499  0.944787  0.231805  -0.130969
    C   C176  0.882322  0.493669  0.000231  0.774689
    C   C177  0.944783  0.503454  0.231804  -0.131145
    C   C178  0.503501  0.055213  0.231805  -0.130976
    C   C179  0.055218  0.496546  0.231804  -0.131086
    C   C180  0.944658  0.502660  0.267434  -0.156571
    C   C181  0.497283  0.944664  0.267438  -0.156531
    C   C182  0.055342  0.497340  0.267434  -0.156630
    C   C183  0.502717  0.055336  0.267438  -0.156533
    C   C184  0.961273  0.460552  0.732212  -0.140994
    C   C185  0.460496  0.038671  0.732209  -0.140294
    C   C186  0.038727  0.539448  0.732212  -0.140919
    C   C187  0.506256  0.882319  0.000194  0.772880
    C   C188  0.539504  0.961329  0.732209  -0.140330
    C   C189  0.500000  0.000000  0.713965  0.082679
    C   C190  0.000000  0.500000  0.713963  0.082943
    C   C191  0.500000  0.000000  0.285652  0.095928
    C   C192  0.000000  0.500000  0.285644  0.095378
    C   C193  0.000000  0.500000  0.213843  0.094830
    C   C194  0.500000  0.000000  0.213838  0.094450
    C   C195  0.000000  0.500000  0.786079  0.080856
    C   C196  0.500000  0.000000  0.786072  0.082675
    C   C197  0.718787  0.957094  0.476591  -0.011577
    C   C198  0.500000  0.000000  0.565453  0.780806
    C   C199  0.042849  0.718802  0.476515  -0.010370
    C   C200  0.281213  0.042906  0.476591  -0.011381
    C   C201  0.957151  0.281198  0.476515  -0.010191
    C   C202  0.717275  0.024823  0.525844  -0.058614
    C   C203  0.024598  0.282745  0.525886  -0.058282
    C   C204  0.282725  0.975177  0.525844  -0.058346
    C   C205  0.975402  0.717255  0.525886  -0.058237
    C   C206  0.217245  0.475367  0.974095  -0.059839
    C   C207  0.524911  0.217271  0.974151  -0.061452
    C   C208  0.782756  0.524633  0.974095  -0.059973
    Cu  Cu1   0.503365  0.060757  0.499596  0.944226
    Cu  Cu2   0.000000  0.000000  0.535139  0.937238
    Cu  Cu3   0.500000  0.500000  0.964875  0.935366
    Cu  Cu4   0.500000  0.500000  0.032086  0.929416
    Cu  Cu5   0.939246  0.503399  0.499569  0.944457
    Cu  Cu6   0.496635  0.939243  0.499596  0.944146
    Cu  Cu7   0.060754  0.496601  0.499569  0.944551
    Cu  Cu8   0.996664  0.560757  0.000488  0.944275
    Cu  Cu9   0.439240  0.996698  0.000464  0.943614
    Cu  Cu10  0.003336  0.439243  0.000488  0.944430
    Cu  Cu11  0.560760  0.003302  0.000464  0.943585
    Cu  Cu12  0.000000  0.000000  0.467928  0.932812
    H   H1    0.596909  0.979543  0.828899  0.111408
    H   H2    0.561128  0.077820  0.328337  0.104988
    H   H3    0.158470  0.744645  0.457701  0.110867
    H   H4    0.140423  0.728376  0.412799  0.155838
    H   H5    0.174043  0.668875  0.439979  0.155416
    H   H6    0.255338  0.158592  0.457879  0.111537
    H   H7    0.271659  0.140668  0.412967  0.156112
    H   H8    0.331116  0.174246  0.440193  0.155849
    H   H9    0.841530  0.255355  0.457701  0.110875
    H   H10   0.859577  0.271624  0.412799  0.155782
    H   H11   0.825957  0.331125  0.439980  0.155404
    H   H12   0.733288  0.142227  0.543399  0.104882
    H   H13   0.922134  0.561061  0.328314  0.105186
    H   H14   0.719291  0.125041  0.588625  0.153356
    H   H15   0.656476  0.151670  0.561318  0.152656
    H   H16   0.141834  0.266591  0.543805  0.104177
    H   H17   0.124162  0.280637  0.588969  0.152764
    H   H18   0.151204  0.343391  0.561746  0.152121
    H   H19   0.266712  0.857773  0.543399  0.104914
    H   H20   0.280709  0.874958  0.588625  0.153353
    H   H21   0.343525  0.848330  0.561318  0.152714
    H   H22   0.858166  0.733409  0.543805  0.104188
    H   H23   0.875838  0.719363  0.588969  0.152769
    H   H24   0.438872  0.922180  0.328337  0.104980
    H   H25   0.848795  0.656609  0.561746  0.152153
    H   H26   0.233531  0.358335  0.955719  0.105495
    H   H27   0.219516  0.376656  0.910631  0.154164
    H   H28   0.156777  0.349088  0.937700  0.153526
    H   H29   0.642077  0.233646  0.956060  0.104820
    H   H30   0.624142  0.219594  0.910928  0.153557
    H   H31   0.651524  0.156889  0.938079  0.152886
    H   H32   0.766470  0.641665  0.955719  0.105466
    H   H33   0.780484  0.623344  0.910631  0.154106
    H   H34   0.843224  0.650911  0.937700  0.153484
    H   H35   0.096882  0.520580  0.671141  0.110741
    H   H36   0.357923  0.766354  0.956060  0.104842
    H   H37   0.375858  0.780406  0.910928  0.153572
    H   H38   0.348476  0.843111  0.938079  0.152939
    H   H39   0.244676  0.658135  0.042436  0.112360
    H   H40   0.228374  0.640089  0.087334  0.158175
    H   H41   0.168881  0.673674  0.060134  0.158003
    H   H42   0.658313  0.755289  0.042187  0.111843
    H   H43   0.640417  0.771591  0.087104  0.157357
    H   H44   0.673971  0.831061  0.059877  0.157258
    H   H45   0.755324  0.341865  0.042436  0.112307
    H   H46   0.520674  0.903139  0.671155  0.110720
    H   H47   0.771627  0.359911  0.087334  0.158143
    H   H48   0.831119  0.326326  0.060134  0.158071
    H   H49   0.341687  0.244711  0.042187  0.111840
    H   H50   0.359582  0.228409  0.087104  0.157355
    H   H51   0.326029  0.168939  0.059877  0.157267
    H   H52   0.903118  0.479420  0.671141  0.110768
    H   H53   0.479326  0.096861  0.671155  0.110722
    H   H54   0.431095  0.071791  0.780969  0.114131
    H   H55   0.928130  0.431186  0.780982  0.113705
    H   H56   0.568905  0.928209  0.780969  0.114118
    H   H57   0.020388  0.596921  0.828907  0.111265
    H   H58   0.071869  0.568814  0.780982  0.113639
    H   H59   0.494924  0.901094  0.218060  0.105464
    H   H60   0.901091  0.504997  0.218057  0.105508
    H   H61   0.505076  0.098906  0.218060  0.105475
    H   H62   0.098909  0.495003  0.218057  0.105570
    H   H63   0.900478  0.502846  0.280666  0.122127
    H   H64   0.497047  0.900484  0.280669  0.122141
    H   H65   0.099522  0.497154  0.280666  0.122133
    H   H66   0.502953  0.099516  0.280669  0.122130
    H   H67   0.931386  0.427943  0.719057  0.113899
    H   H68   0.403091  0.020457  0.828899  0.111432
    H   H69   0.427845  0.068510  0.719053  0.113738
    H   H70   0.068613  0.572057  0.719057  0.113882
    H   H71   0.572155  0.931490  0.719053  0.113713
    H   H72   0.808677  0.933720  0.457377  0.121517
    H   H73   0.066093  0.808697  0.457267  0.121099
    H   H74   0.191323  0.066280  0.457377  0.121512
    H   H75   0.933907  0.191303  0.457266  0.121178
    H   H76   0.805345  0.051402  0.545899  0.113090
    H   H77   0.051088  0.194685  0.545993  0.113037
    H   H78   0.194655  0.948598  0.545898  0.113079
    H   H79   0.979612  0.403079  0.828907  0.111214
    H   H80   0.948912  0.805315  0.545993  0.113001
    H   H81   0.305309  0.449019  0.953920  0.113379
    H   H82   0.551356  0.305357  0.954044  0.113134
    H   H83   0.694691  0.550981  0.953921  0.113287
    H   H84   0.448644  0.694644  0.954044  0.113132
    H   H85   0.308715  0.565743  0.042832  0.119935
    H   H86   0.565975  0.691306  0.042702  0.120579
    H   H87   0.691285  0.434257  0.042832  0.119909
    H   H88   0.434025  0.308695  0.042702  0.120578
    H   H89   0.664806  0.037140  0.869484  0.100264
    H   H90   0.578608  0.059529  0.172204  0.108203
    H   H91   0.703306  0.962747  0.874482  0.145075
    H   H92   0.693755  0.013840  0.911257  0.154766
    H   H93   0.962464  0.664665  0.869514  0.099570
    H   H94   0.036705  0.703434  0.874562  0.144645
    H   H95   0.985610  0.693615  0.911314  0.154424
    H   H96   0.335194  0.962860  0.869484  0.100246
    H   H97   0.296694  0.037252  0.874481  0.145120
    H   H98   0.306245  0.986160  0.911257  0.154754
    H   H99   0.037536  0.335335  0.869514  0.099576
    H   H100  0.963295  0.296566  0.874562  0.144651
    H   H101  0.059435  0.421328  0.172226  0.107942
    H   H102  0.014390  0.306385  0.911314  0.154425
    H   H103  0.665949  0.031402  0.134677  0.096870
    H   H104  0.672101  0.114154  0.126570  0.143627
    H   H105  0.687587  0.058969  0.092375  0.152443
    H   H106  0.031228  0.334013  0.134713  0.096426
    H   H107  0.114013  0.327889  0.126702  0.143146
    H   H108  0.058958  0.312285  0.092459  0.151915
    H   H109  0.334052  0.968598  0.134677  0.096903
    H   H110  0.327899  0.885847  0.126570  0.143678
    H   H111  0.312413  0.941032  0.092375  0.152490
    H   H112  0.421392  0.940471  0.172204  0.108208
    H   H113  0.968773  0.665987  0.134713  0.096483
    H   H114  0.885987  0.672110  0.126703  0.143131
    H   H115  0.941042  0.687715  0.092459  0.151915
    H   H116  0.166095  0.468313  0.365191  0.102960
    H   H117  0.171822  0.385541  0.373312  0.147641
    H   H118  0.187747  0.440658  0.407477  0.155505
    H   H119  0.531882  0.166065  0.365279  0.103012
    H   H120  0.614644  0.171737  0.373441  0.147653
    H   H121  0.559486  0.187588  0.407597  0.155645
    H   H122  0.833905  0.531687  0.365191  0.102952
    H   H123  0.940566  0.578672  0.172226  0.107931
    H   H124  0.828178  0.614459  0.373312  0.147640
    H   H125  0.812253  0.559342  0.407478  0.155526
    H   H126  0.468119  0.833934  0.365279  0.103042
    H   H127  0.385357  0.828262  0.373441  0.147628
    H   H128  0.440514  0.812412  0.407597  0.155649
    H   H129  0.164716  0.462725  0.630550  0.099670
    H   H130  0.203368  0.537024  0.625482  0.144372
    H   H131  0.193647  0.485872  0.588746  0.154325
    H   H132  0.462840  0.835283  0.630581  0.099727
    H   H133  0.537143  0.796650  0.625497  0.144494
    H   H134  0.077866  0.438939  0.328314  0.105192
    H   H135  0.485965  0.806367  0.588771  0.154416
    H   H136  0.835284  0.537275  0.630549  0.099638
    H   H137  0.796632  0.462976  0.625482  0.144382
    H   H138  0.806353  0.514128  0.588746  0.154352
    H   H139  0.537160  0.164717  0.630581  0.099711
    H   H140  0.462857  0.203350  0.625497  0.144514
    H   H141  0.514035  0.193633  0.588771  0.154443
    H   H142  0.744662  0.841408  0.457878  0.111471
    H   H143  0.728341  0.859332  0.412966  0.156151
    H   H144  0.668884  0.825754  0.440192  0.155868
    O   O1    0.591472  0.046514  0.490654  -0.599162
    O   O2    0.443713  0.085856  0.991441  -0.572329
    O   O3    0.914175  0.443664  0.991463  -0.572998
    O   O4    0.556287  0.914144  0.991441  -0.572269
    O   O5    0.091449  0.453446  0.009435  -0.599287
    O   O6    0.453389  0.908575  0.009405  -0.598645
    O   O7    0.908551  0.546554  0.009435  -0.599215
    O   O8    0.546611  0.091425  0.009405  -0.598651
    O   O9    0.519134  0.050321  0.549061  -0.559293
    O   O10   0.949692  0.519167  0.549034  -0.560894
    O   O11   0.480866  0.949679  0.549061  -0.559161
    O   O12   0.953543  0.591496  0.490623  -0.599307
    O   O13   0.050308  0.480833  0.549034  -0.560890
    O   O14   0.513386  0.947682  0.450103  -0.600786
    O   O15   0.947675  0.486637  0.450077  -0.601084
    O   O16   0.486614  0.052318  0.450103  -0.600832
    O   O17   0.052325  0.513363  0.450077  -0.601128
    O   O18   0.013420  0.552311  0.049980  -0.602403
    O   O19   0.447695  0.013439  0.049957  -0.601503
    O   O20   0.986581  0.447689  0.049980  -0.602492
    O   O21   0.552305  0.986561  0.049957  -0.601511
    O   O22   0.019116  0.449674  0.951023  -0.560716
    O   O23   0.408528  0.953486  0.490654  -0.599194
    O   O24   0.449659  0.980921  0.950998  -0.559213
    O   O25   0.980884  0.550326  0.951023  -0.560588
    O   O26   0.550341  0.019079  0.950998  -0.559131
    O   O27   0.978011  0.087726  0.473237  -0.601492
    O   O28   0.912272  0.978011  0.473238  -0.602042
    O   O29   0.021989  0.912273  0.473237  -0.601478
    O   O30   0.087728  0.021988  0.473238  -0.602026
    O   O31   0.985369  0.910769  0.529825  -0.604119
    O   O32   0.910770  0.014633  0.529827  -0.604054
    O   O33   0.014631  0.089231  0.529825  -0.604050
    O   O34   0.046456  0.408504  0.490623  -0.599533
    O   O35   0.089230  0.985367  0.529827  -0.604091
    O   O36   0.485267  0.589213  0.970189  -0.603238
    O   O37   0.410785  0.485269  0.970190  -0.602772
    O   O38   0.514733  0.410787  0.970189  -0.603229
    O   O39   0.589215  0.514731  0.970190  -0.602781
    O   O40   0.478095  0.412254  0.026775  -0.601040
    O   O41   0.412254  0.521906  0.026776  -0.600342
    O   O42   0.521905  0.587747  0.026775  -0.601095
    O   O43   0.587746  0.478094  0.026776  -0.600334
    O   O44   0.610349  0.923609  0.915699  -0.502443
    O   O45   0.585798  0.943623  0.508619  -0.571908
    O   O46   0.076155  0.610535  0.915725  -0.501834
    O   O47   0.389651  0.076392  0.915699  -0.502283
    O   O48   0.923845  0.389465  0.915725  -0.501866
    O   O49   0.576335  0.106998  0.081908  -0.468155
    O   O50   0.106867  0.423511  0.081909  -0.468063
    O   O51   0.423665  0.893002  0.081908  -0.468198
    O   O52   0.893134  0.576489  0.081909  -0.468217
    O   O53   0.076246  0.393142  0.418040  -0.466336
    O   O54   0.606985  0.076030  0.418056  -0.466882
    O   O55   0.923754  0.606858  0.418040  -0.466361
    O   O56   0.943571  0.414233  0.508594  -0.572262
    O   O57   0.393015  0.923970  0.418056  -0.466889
    O   O58   0.110417  0.576239  0.584269  -0.502698
    O   O59   0.576350  0.889617  0.584306  -0.503441
    O   O60   0.889583  0.423761  0.584269  -0.502711
    O   O61   0.423650  0.110383  0.584306  -0.503451
    O   O62   0.644066  0.944670  0.433336  -0.472273
    O   O63   0.055083  0.644134  0.433214  -0.472326
    O   O64   0.355934  0.055330  0.433336  -0.472290
    O   O65   0.944917  0.355866  0.433214  -0.472419
    O   O66   0.644803  0.030272  0.570464  -0.512620
    O   O67   0.414202  0.056377  0.508619  -0.572012
    O   O68   0.029751  0.355312  0.570466  -0.512365
    O   O69   0.355197  0.969728  0.570463  -0.512691
    O   O70   0.970249  0.644688  0.570466  -0.512433
    O   O71   0.144567  0.470598  0.929557  -0.512135
    O   O72   0.530081  0.144609  0.929616  -0.512136
    O   O73   0.855434  0.529402  0.929557  -0.512078
    O   O74   0.469919  0.855391  0.929616  -0.512184
    O   O75   0.144261  0.554651  0.066938  -0.472668
    O   O76   0.555022  0.855828  0.066781  -0.473464
    O   O77   0.855740  0.445349  0.066938  -0.472654
    O   O78   0.056429  0.585766  0.508594  -0.572244
    O   O79   0.444978  0.144172  0.066781  -0.473470
    O   O80   0.085825  0.556336  0.991463  -0.572914
