# Generated by REPEAT Assigner based on pymatgen
data_DB0-m2_o1_o2_f0_pcu.sym.26
_audit_creation_date              2022-05-24
_audit_creation_method            REPEAT_Assigner
_cell_length_a                    10.853232
_cell_length_b                    9.409299
_cell_length_c                    15.184441
_cell_angle_alpha                 90.000000
_cell_angle_beta                  90.005933
_cell_angle_gamma                 90.000000
_cell_volume                      1550.654885
_symmetry_space_group_name_H-M    P1
_symmetry_Int_Tables_number       1
loop_
    _symmetry_equiv_pos_site_id
    _symmetry_equiv_pos_as_xyz
    1  x,y,z
loop_
    _atom_site_type_symbol
    _atom_site_label
    _atom_site_fract_x
    _atom_site_fract_y
    _atom_site_fract_z
    _atom_type_partial_charge
    O   O1   0.318788  0.622136  0.496181  -0.578554
    O   O2   0.677090  0.378480  0.501507  -0.593052
    O   O3   0.676863  0.622240  0.496676  -0.574934
    O   O4   0.318984  0.378127  0.503047  -0.571251
    N   N1   0.497563  0.854889  0.500238  -0.082131
    N   N2   0.498387  0.145535  0.499169  -0.010597
    C   C1   0.261029  0.499949  0.499425  0.655479
    C   C2   0.734936  0.500594  0.498904  0.674175
    O   O5   0.493853  0.623375  0.371474  -0.573138
    O   O6   0.503610  0.378138  0.627259  -0.501926
    O   O7   0.492931  0.620370  0.627430  -0.528955
    O   O8   0.501318  0.378761  0.371339  -0.592279
    C   C3   0.497806  0.500966  0.329860  0.723672
    C   C4   0.498289  0.499209  0.669781  0.555660
    Cu  Cu1  0.497992  0.642162  0.499532  0.855637
    Cu  Cu2  0.497427  0.358267  0.499212  0.823578
    H   H1   0.347989  0.129216  0.411807  0.151109
    H   H2   0.649507  0.871558  0.586589  0.112447
    H   H3   0.645845  0.131497  0.588737  0.116779
    H   H4   0.349049  0.868631  0.412045  0.108803
    C   C5   0.413560  0.073022  0.452428  -0.066020
    C   C6   0.580037  0.927408  0.549159  0.028970
    C   C7   0.579112  0.074171  0.549674  -0.002607
    C   C8   0.413491  0.926363  0.452787  0.039355
    C   C9   0.061199  0.373335  0.501907  -0.081016
    C   C10  0.935268  0.627574  0.496125  -0.038418
    C   C11  0.934179  0.374212  0.501873  -0.087460
    C   C12  0.062376  0.626777  0.496148  -0.134675
    C   C13  0.575632  0.587049  0.095095  -0.056686
    C   C14  0.493858  0.373584  0.907277  -0.196029
    C   C15  0.497953  0.624998  0.907286  -0.216024
    C   C16  0.417180  0.411991  0.095835  -0.048753
    H   H5   0.639846  0.651492  0.058277  0.117307
    H   H6   0.492528  0.274395  0.943058  0.157989
    H   H7   0.500132  0.724811  0.942522  0.162756
    H   H8   0.352372  0.347150  0.059694  0.117900
    C   C17  0.578903  0.586075  0.186196  0.095387
    C   C18  0.491844  0.371411  0.816371  -0.066560
    C   C19  0.499238  0.626703  0.816504  -0.027374
    C   C20  0.415005  0.414073  0.187033  0.080313
    C   C21  0.497330  0.500298  0.232992  -0.295050
    C   C22  0.496547  0.499086  0.768379  -0.070228
    H   H9   0.108495  0.272344  0.503533  0.096663
    H   H10  0.887980  0.728359  0.493355  0.090351
    H   H11  0.885917  0.273851  0.503602  0.110875
    H   H12  0.111054  0.727041  0.493368  0.122540
    C   C23  0.496295  0.499191  0.049811  -0.088492
    C   C24  0.496137  0.499348  0.953132  0.238784
    C   C25  0.870222  0.501023  0.499237  -0.067598
    C   C26  0.125975  0.499877  0.499408  -0.021688
    C   C27  0.673679  0.671211  0.231210  0.357400
    H   H13  0.696966  0.653127  0.299623  0.037021
    O   O9   0.731474  0.760763  0.190529  -0.447499
    C   C28  0.483885  0.229838  0.776102  0.473218
    H   H14  0.418768  0.207269  0.723803  -0.011950
    O   O10  0.544842  0.132741  0.806376  -0.427965
    C   C29  0.505585  0.768184  0.776454  0.444202
    H   H15  0.571274  0.791077  0.724951  -0.017688
    O   O11  0.442899  0.864393  0.806200  -0.413882
    C   C30  0.319857  0.330326  0.232913  0.367010
    H   H16  0.297579  0.349495  0.301366  0.026469
    O   O12  0.260613  0.241051  0.192952  -0.451369
