# Generated by REPEAT Assigner based on pymatgen
data_DB0-m2_o1_o2_f0_nbo.sym.82_sqe
_audit_creation_date              2022-05-24
_audit_creation_method            REPEAT_Assigner
_cell_length_a                    21.491328
_cell_length_b                    21.491328
_cell_length_c                    30.006030
_cell_angle_alpha                 90.000000
_cell_angle_beta                  90.000000
_cell_angle_gamma                 90.000000
_cell_volume                      13859.099841
_symmetry_space_group_name_H-M    P1
_symmetry_Int_Tables_number       1
loop_
    _symmetry_equiv_pos_site_id
    _symmetry_equiv_pos_as_xyz
    1  x,y,z
loop_
    _atom_site_type_symbol
    _atom_site_label
    _atom_site_fract_x
    _atom_site_fract_y
    _atom_site_fract_z
    _atom_type_partial_charge
    C   C1    0.117592  0.500000  0.500000  1.038759
    C   C2    0.496453  0.718535  0.539760  -0.367964
    C   C3    0.500000  0.000000  0.725553  0.053850
    C   C4    0.500000  0.000000  0.774447  0.053940
    C   C5    0.000000  0.500000  0.774447  0.053930
    C   C6    0.500001  0.000001  0.225553  0.053792
    C   C7    0.000000  0.500000  0.225553  0.053942
    C   C8    0.500000  0.381789  0.500000  0.705396
    C   C9    0.381789  0.500000  0.500000  0.705407
    C   C10   0.500000  0.618211  0.500000  0.705279
    C   C11   0.618212  0.500000  0.500000  0.705326
    C   C12   0.000000  0.881789  0.000000  0.705368
    C   C13   0.718535  0.503548  0.539760  -0.368060
    C   C14   0.881789  0.000000  0.000000  0.705441
    C   C15   0.000000  0.118212  0.000000  0.705332
    C   C16   0.118212  0.000000  0.000000  0.705327
    C   C17   0.313727  0.500000  0.500000  0.022922
    C   C18   0.500000  0.686273  0.500000  0.023001
    C   C19   0.686273  0.500000  0.500000  0.023027
    C   C20   0.500000  0.313727  0.500000  0.023032
    C   C21   0.813727  0.000000  0.000000  0.022921
    C   C22   0.000000  0.186273  0.000000  0.023070
    C   C23   0.186273  0.000000  0.000000  0.023025
    C   C24   0.503549  0.281465  0.539760  -0.368153
    C   C25   0.000000  0.813727  0.000000  0.022985
    C   C26   0.177470  0.547419  0.597430  0.353523
    C   C27   0.196644  0.545899  0.645982  0.115964
    C   C28   0.181135  0.607438  0.667973  -0.226036
    C   C29   0.547420  0.822530  0.597429  0.354065
    C   C30   0.545902  0.803355  0.645982  0.115219
    C   C31   0.607441  0.818864  0.667972  -0.225781
    C   C32   0.822530  0.452581  0.597429  0.353708
    C   C33   0.803356  0.454100  0.645982  0.115777
    C   C34   0.818865  0.392561  0.667973  -0.225976
    C   C35   0.281465  0.503548  0.460240  -0.368028
    C   C36   0.452582  0.177470  0.597430  0.353097
    C   C37   0.454102  0.196643  0.645983  0.116589
    C   C38   0.392563  0.181134  0.667973  -0.226388
    C   C39   0.177470  0.452581  0.402570  0.353208
    C   C40   0.196644  0.454101  0.354018  0.116084
    C   C41   0.181135  0.392562  0.332027  -0.226094
    C   C42   0.547418  0.177470  0.402570  0.353015
    C   C43   0.545898  0.196643  0.354017  0.116154
    C   C44   0.607437  0.181133  0.332026  -0.226143
    C   C45   0.822530  0.547419  0.402570  0.353827
    C   C46   0.496452  0.281465  0.460240  -0.368197
    C   C47   0.803356  0.545900  0.354018  0.115630
    C   C48   0.818865  0.607440  0.332027  -0.226016
    C   C49   0.452580  0.822530  0.402571  0.353922
    C   C50   0.454099  0.803355  0.354018  0.115396
    C   C51   0.392559  0.818863  0.332028  -0.225883
    C   C52   0.677470  0.047418  0.097430  0.353199
    C   C53   0.696643  0.045898  0.145983  0.116199
    C   C54   0.681133  0.107437  0.167974  -0.226153
    C   C55   0.047419  0.322530  0.097430  0.353904
    C   C56   0.045900  0.303357  0.145982  0.115587
    C   C57   0.718535  0.496452  0.460240  -0.368019
    C   C58   0.107439  0.318866  0.167973  -0.225854
    C   C59   0.322530  0.952580  0.097429  0.353836
    C   C60   0.303355  0.954099  0.145982  0.115421
    C   C61   0.318863  0.892559  0.167972  -0.225842
    C   C62   0.952582  0.677470  0.097430  0.353531
    C   C63   0.954101  0.696644  0.145982  0.115934
    C   C64   0.892562  0.681135  0.167973  -0.226103
    C   C65   0.677470  0.952582  0.902570  0.353136
    C   C66   0.696643  0.954102  0.854017  0.116302
    C   C67   0.681134  0.892563  0.832027  -0.226194
    C   C68   0.503548  0.718535  0.460240  -0.367956
    C   C69   0.047419  0.677470  0.902570  0.353545
    C   C70   0.045899  0.696643  0.854018  0.115943
    C   C71   0.107438  0.681134  0.832027  -0.225977
    C   C72   0.322530  0.047420  0.902571  0.354100
    C   C73   0.303356  0.045901  0.854018  0.115246
    C   C74   0.318864  0.107441  0.832028  -0.225714
    C   C75   0.952581  0.322530  0.902570  0.353332
    C   C76   0.954101  0.303356  0.854018  0.116143
    C   C77   0.892562  0.318865  0.832027  -0.226026
    C   C78   0.781465  0.996452  0.039760  -0.368051
    C   C79   0.996452  0.218535  0.039760  -0.368069
    C   C80   0.218535  0.003548  0.039760  -0.368002
    C   C81   0.500000  0.882409  0.500000  1.038784
    C   C82   0.003548  0.781465  0.039760  -0.368052
    C   C83   0.781465  0.003549  0.960240  -0.368095
    C   C84   0.996452  0.781465  0.960240  -0.368078
    C   C85   0.218535  0.996452  0.960240  -0.367991
    C   C86   0.003548  0.218535  0.960240  -0.368103
    C   C87   0.000000  0.500000  0.415617  0.802822
    C   C88   0.500001  0.000000  0.415617  0.803018
    C   C89   0.000000  0.500000  0.584382  0.802884
    C   C90   0.500000  0.000000  0.584383  0.803139
    C   C91   0.500000  0.000000  0.915617  0.802820
    C   C92   0.882409  0.500000  0.500000  1.038852
    C   C93   0.000000  0.500000  0.915617  0.803014
    C   C94   0.500000  0.000000  0.084383  0.802906
    C   C95   0.000000  0.500000  0.084382  0.803046
    C   C96   0.185289  0.500000  0.500000  -0.588298
    C   C97   0.500000  0.814711  0.500000  -0.588407
    C   C98   0.814712  0.500000  0.500000  -0.588613
    C   C99   0.500000  0.185289  0.500000  -0.588842
    C   C100  0.685289  0.000000  0.000000  -0.588531
    C   C101  0.000000  0.314712  0.000000  -0.588675
    C   C102  0.314712  0.000000  0.000000  -0.588440
    C   C103  0.500000  0.117591  0.500000  1.038984
    C   C104  0.000000  0.685289  0.000000  -0.588527
    C   C105  0.217260  0.496829  0.539836  0.597800
    C   C106  0.496830  0.782740  0.539836  0.597704
    C   C107  0.782740  0.503171  0.539836  0.597935
    C   C108  0.503171  0.217260  0.539836  0.598120
    C   C109  0.217260  0.503171  0.460164  0.597787
    C   C110  0.496829  0.217260  0.460164  0.598066
    C   C111  0.782740  0.496830  0.460164  0.597788
    C   C112  0.503170  0.782740  0.460164  0.597768
    C   C113  0.717260  0.996829  0.039836  0.597821
    C   C114  0.617592  0.000000  0.000000  1.039066
    C   C115  0.996830  0.282740  0.039836  0.597807
    C   C116  0.282740  0.003170  0.039836  0.597740
    C   C117  0.003171  0.717260  0.039836  0.597853
    C   C118  0.717260  0.003171  0.960164  0.597993
    C   C119  0.996829  0.717260  0.960164  0.597904
    C   C120  0.282740  0.996830  0.960164  0.597753
    C   C121  0.003171  0.282740  0.960164  0.597947
    C   C122  0.023010  0.550483  0.297700  -0.112061
    C   C123  0.550484  0.976991  0.297700  -0.111783
    C   C124  0.976991  0.449517  0.297700  -0.111937
    C   C125  0.000000  0.382409  0.000000  1.038903
    C   C126  0.449518  0.023010  0.297700  -0.112511
    C   C127  0.023010  0.449517  0.702300  -0.112030
    C   C128  0.550483  0.023009  0.702300  -0.111979
    C   C129  0.976991  0.550483  0.702300  -0.111904
    C   C130  0.449517  0.976991  0.702300  -0.112036
    C   C131  0.523010  0.050483  0.797700  -0.112095
    C   C132  0.050483  0.476991  0.797700  -0.111900
    C   C133  0.476991  0.949517  0.797700  -0.112095
    C   C134  0.949517  0.523010  0.797700  -0.112115
    C   C135  0.523010  0.949518  0.202300  -0.112417
    C   C136  0.382409  0.000000  0.000000  1.038751
    C   C137  0.050483  0.523010  0.202300  -0.112121
    C   C138  0.476991  0.050484  0.202300  -0.111640
    C   C139  0.949517  0.476991  0.202300  -0.112084
    C   C140  0.022815  0.550604  0.343610  -0.032084
    C   C141  0.550604  0.977186  0.343610  -0.032213
    C   C142  0.977185  0.449396  0.343610  -0.032153
    C   C143  0.449397  0.022815  0.343610  -0.031695
    C   C144  0.022815  0.449396  0.656389  -0.032205
    C   C145  0.550604  0.022815  0.656389  -0.032228
    C   C146  0.977185  0.550604  0.656389  -0.032301
    C   C147  0.000000  0.617592  0.000000  1.038866
    C   C148  0.449396  0.977185  0.656389  -0.032113
    C   C149  0.522815  0.050604  0.843610  -0.031988
    C   C150  0.050604  0.477185  0.843610  -0.032281
    C   C151  0.477185  0.949396  0.843610  -0.031931
    C   C152  0.949397  0.522815  0.843610  -0.031978
    C   C153  0.522816  0.949397  0.156389  -0.031958
    C   C154  0.050604  0.522815  0.156389  -0.032187
    C   C155  0.477186  0.050604  0.156389  -0.032439
    C   C156  0.949397  0.477185  0.156389  -0.032134
    C   C157  0.000000  0.500000  0.366822  -0.057264
    C   C158  0.281465  0.496452  0.539760  -0.368034
    C   C159  0.500001  0.000000  0.366822  -0.057413
    C   C160  0.000000  0.500000  0.633178  -0.057134
    C   C161  0.500000  0.000000  0.633178  -0.057269
    C   C162  0.500000  0.000000  0.866822  -0.057436
    C   C163  0.000000  0.500000  0.866822  -0.057250
    C   C164  0.500000  0.000001  0.133178  -0.057046
    C   C165  0.000000  0.500000  0.133178  -0.057162
    C   C166  0.000000  0.500000  0.274447  0.053837
    C   C167  0.500001  0.000001  0.274447  0.054042
    C   C168  0.000000  0.500000  0.725553  0.053767
    Cu  Cu1   0.000000  0.439283  0.500000  0.977683
    Cu  Cu2   0.500000  0.500000  0.456330  0.927988
    Cu  Cu3   0.000000  0.000000  0.043670  0.927982
    Cu  Cu4   0.000000  0.000000  0.956330  0.927998
    Cu  Cu5   0.439283  0.000000  0.500000  0.977752
    Cu  Cu6   0.000000  0.560718  0.500000  0.977781
    Cu  Cu7   0.560718  0.000000  0.500000  0.977853
    Cu  Cu8   0.500000  0.939283  0.000000  0.977699
    Cu  Cu9   0.939283  0.500000  0.000000  0.977666
    Cu  Cu10  0.500000  0.060718  0.000000  0.977786
    Cu  Cu11  0.060718  0.500000  0.000000  0.977904
    Cu  Cu12  0.500000  0.500000  0.543670  0.927980
    H   H1    0.040154  0.590983  0.280254  0.096400
    H   H2    0.090983  0.459847  0.780254  0.096365
    H   H3    0.491959  0.828863  0.336786  -0.021232
    H   H4    0.462788  0.752597  0.351664  -0.017929
    H   H5    0.354211  0.794766  0.349750  0.048811
    H   H6    0.393609  0.803278  0.296807  0.058628
    H   H7    0.384745  0.869861  0.333046  0.020970
    H   H8    0.627761  0.060699  0.095268  -0.047204
    H   H9    0.705847  0.082246  0.079263  -0.040442
    H   H10   0.671134  0.008037  0.163214  -0.020760
    H   H11   0.747400  0.037209  0.148338  -0.018354
    H   H12   0.705231  0.145785  0.150253  0.048248
    H   H13   0.459847  0.909017  0.780254  0.096366
    H   H14   0.696716  0.106385  0.203195  0.058695
    H   H15   0.630135  0.115251  0.166954  0.021442
    H   H16   0.060699  0.372239  0.095268  -0.047297
    H   H17   0.082247  0.294153  0.079262  -0.040477
    H   H18   0.008039  0.328865  0.163214  -0.020958
    H   H19   0.037210  0.252599  0.148337  -0.018184
    H   H20   0.145787  0.294768  0.150252  0.048451
    H   H21   0.106388  0.303282  0.203194  0.058615
    H   H22   0.115253  0.369863  0.166954  0.021252
    H   H23   0.372239  0.939300  0.095268  -0.047244
    H   H24   0.909017  0.540154  0.780254  0.096374
    H   H25   0.294154  0.917752  0.079261  -0.040383
    H   H26   0.328863  0.991959  0.163214  -0.021227
    H   H27   0.252598  0.962788  0.148336  -0.017954
    H   H28   0.294766  0.854211  0.150250  0.048790
    H   H29   0.303279  0.893610  0.203193  0.058615
    H   H30   0.369861  0.884745  0.166954  0.020955
    H   H31   0.939301  0.627761  0.095268  -0.047252
    H   H32   0.917753  0.705847  0.079262  -0.040471
    H   H33   0.991962  0.671136  0.163214  -0.020975
    H   H34   0.962790  0.747401  0.148337  -0.018173
    H   H35   0.540154  0.909018  0.219746  0.096341
    H   H36   0.854214  0.705232  0.150252  0.048479
    H   H37   0.893613  0.696719  0.203194  0.058691
    H   H38   0.884748  0.630137  0.166954  0.021194
    H   H39   0.627761  0.939302  0.904732  -0.047123
    H   H40   0.705847  0.917754  0.920737  -0.040507
    H   H41   0.671135  0.991963  0.836786  -0.020905
    H   H42   0.747401  0.962791  0.851662  -0.018304
    H   H43   0.705232  0.854215  0.849747  0.048366
    H   H44   0.696717  0.893614  0.796805  0.058713
    H   H45   0.630136  0.884749  0.833045  0.021265
    H   H46   0.090983  0.540153  0.219746  0.096413
    H   H47   0.060699  0.627761  0.904732  -0.047170
    H   H48   0.082247  0.705847  0.920738  -0.040452
    H   H49   0.008039  0.671135  0.836786  -0.020938
    H   H50   0.037210  0.747401  0.851662  -0.018242
    H   H51   0.145786  0.705232  0.849748  0.048410
    H   H52   0.106387  0.696718  0.796806  0.058623
    H   H53   0.115252  0.630137  0.833046  0.021247
    H   H54   0.372239  0.060700  0.904732  -0.047258
    H   H55   0.294154  0.082248  0.920738  -0.040436
    H   H56   0.328864  0.008041  0.836786  -0.021075
    H   H57   0.459847  0.090984  0.219746  0.096360
    H   H58   0.252598  0.037212  0.851663  -0.017998
    H   H59   0.294767  0.145789  0.849749  0.048684
    H   H60   0.303280  0.106390  0.796807  0.058548
    H   H61   0.369862  0.115255  0.833046  0.021096
    H   H62   0.939301  0.372239  0.904732  -0.047195
    H   H63   0.917753  0.294153  0.920738  -0.040434
    H   H64   0.991961  0.328864  0.836786  -0.021075
    H   H65   0.962790  0.252599  0.851663  -0.018213
    H   H66   0.854214  0.294768  0.849748  0.048467
    H   H67   0.893613  0.303281  0.796806  0.058635
    H   H68   0.909017  0.459847  0.219746  0.096352
    H   H69   0.884748  0.369863  0.833046  0.021166
    H   H70   0.040876  0.590807  0.360917  0.094234
    H   H71   0.590807  0.959125  0.360917  0.094209
    H   H72   0.959125  0.409194  0.360917  0.094221
    H   H73   0.590984  0.959847  0.280254  0.096436
    H   H74   0.409194  0.040876  0.360917  0.094116
    H   H75   0.040876  0.409194  0.639083  0.094262
    H   H76   0.590807  0.040876  0.639083  0.094277
    H   H77   0.959125  0.590807  0.639083  0.094270
    H   H78   0.409194  0.959124  0.639083  0.094240
    H   H79   0.540876  0.090807  0.860917  0.094213
    H   H80   0.090807  0.459124  0.860917  0.094269
    H   H81   0.459124  0.909194  0.860917  0.094176
    H   H82   0.909194  0.540876  0.860917  0.094148
    H   H83   0.540876  0.909194  0.139083  0.094222
    H   H84   0.959847  0.409017  0.280254  0.096343
    H   H85   0.090807  0.540876  0.139083  0.094270
    H   H86   0.459125  0.090807  0.139083  0.094285
    H   H87   0.909194  0.459124  0.139083  0.094197
    H   H88   0.306009  0.492236  0.571047  0.172920
    H   H89   0.492237  0.693991  0.571047  0.172839
    H   H90   0.693991  0.507763  0.571047  0.172886
    H   H91   0.507764  0.306009  0.571047  0.172944
    H   H92   0.306009  0.507764  0.428953  0.172904
    H   H93   0.492236  0.306009  0.428953  0.172959
    H   H94   0.693991  0.492237  0.428953  0.172891
    H   H95   0.409018  0.040154  0.280254  0.096374
    H   H96   0.507763  0.693991  0.428953  0.172854
    H   H97   0.806009  0.992236  0.071047  0.172933
    H   H98   0.992236  0.193991  0.071047  0.172921
    H   H99   0.193991  0.007763  0.071047  0.172864
    H   H100  0.007764  0.806009  0.071047  0.172905
    H   H101  0.806009  0.007764  0.928953  0.172940
    H   H102  0.992236  0.806009  0.928953  0.172920
    H   H103  0.193991  0.992237  0.928953  0.172878
    H   H104  0.007764  0.193991  0.928953  0.172907
    H   H105  0.127761  0.560699  0.595268  -0.047200
    H   H106  0.040154  0.409017  0.719746  0.096362
    H   H107  0.205847  0.582247  0.579262  -0.040435
    H   H108  0.171135  0.508039  0.663214  -0.020971
    H   H109  0.247401  0.537210  0.648338  -0.018188
    H   H110  0.205232  0.645787  0.650252  0.048460
    H   H111  0.196718  0.606387  0.703194  0.058652
    H   H112  0.130137  0.615252  0.666954  0.021214
    H   H113  0.560700  0.872239  0.595268  -0.047266
    H   H114  0.582248  0.794154  0.579261  -0.040357
    H   H115  0.508041  0.828863  0.663214  -0.021114
    H   H116  0.537212  0.752598  0.648337  -0.017932
    H   H117  0.590983  0.040153  0.719746  0.096360
    H   H118  0.645789  0.794766  0.650251  0.048704
    H   H119  0.606391  0.803279  0.703193  0.058593
    H   H120  0.615255  0.869862  0.666954  0.021118
    H   H121  0.872239  0.439301  0.595268  -0.047229
    H   H122  0.794154  0.417753  0.579262  -0.040461
    H   H123  0.828864  0.491960  0.663214  -0.021086
    H   H124  0.752599  0.462789  0.648337  -0.018138
    H   H125  0.794767  0.354213  0.650251  0.048539
    H   H126  0.803281  0.393611  0.703194  0.058640
    H   H127  0.869863  0.384747  0.666954  0.021192
    H   H128  0.959847  0.590983  0.719746  0.096360
    H   H129  0.439302  0.127761  0.595268  -0.047122
    H   H130  0.417754  0.205847  0.579263  -0.040508
    H   H131  0.491962  0.171135  0.663214  -0.021018
    H   H132  0.462791  0.247401  0.648338  -0.018357
    H   H133  0.354215  0.205232  0.650252  0.048416
    H   H134  0.393614  0.196718  0.703195  0.058739
    H   H135  0.384749  0.130136  0.666954  0.021299
    H   H136  0.127761  0.439301  0.404732  -0.047111
    H   H137  0.205847  0.417753  0.420738  -0.040390
    H   H138  0.171136  0.491961  0.336786  -0.021008
    H   H139  0.409017  0.959847  0.719745  0.096345
    H   H140  0.247401  0.462790  0.351662  -0.018182
    H   H141  0.205232  0.354214  0.349748  0.048477
    H   H142  0.196719  0.393613  0.296806  0.058656
    H   H143  0.130137  0.384748  0.333046  0.021215
    H   H144  0.560699  0.127761  0.404732  -0.047066
    H   H145  0.582247  0.205847  0.420737  -0.040397
    H   H146  0.508038  0.171134  0.336786  -0.020775
    H   H147  0.537209  0.247400  0.351662  -0.018327
    H   H148  0.645786  0.205231  0.349747  0.048276
    H   H149  0.606386  0.196717  0.296805  0.058710
    H   H150  0.540153  0.090983  0.780254  0.096379
    H   H151  0.615251  0.130135  0.333046  0.021418
    H   H152  0.872239  0.560699  0.404732  -0.047267
    H   H153  0.794154  0.582247  0.420738  -0.040469
    H   H154  0.828864  0.508040  0.336786  -0.021039
    H   H155  0.752599  0.537211  0.351663  -0.018114
    H   H156  0.794767  0.645788  0.349749  0.048606
    H   H157  0.803281  0.606389  0.296806  0.058657
    H   H158  0.869863  0.615254  0.333046  0.021209
    H   H159  0.439300  0.872239  0.404732  -0.047260
    H   H160  0.417752  0.794154  0.420739  -0.040428
    O   O1    0.088654  0.448747  0.487448  -0.664338
    O   O2    0.948747  0.411347  0.987448  -0.664305
    O   O3    0.411347  0.051254  0.987448  -0.664189
    O   O4    0.051254  0.588653  0.987448  -0.664281
    O   O5    0.588654  0.051254  0.012551  -0.664296
    O   O6    0.948747  0.588654  0.012552  -0.664310
    O   O7    0.411347  0.948747  0.012552  -0.664252
    O   O8    0.051254  0.411347  0.012552  -0.664234
    O   O9    0.982421  0.448810  0.436534  -0.637414
    O   O10   0.448811  0.017579  0.436534  -0.637620
    O   O11   0.017579  0.551190  0.436534  -0.637438
    O   O12   0.448747  0.911347  0.487448  -0.664301
    O   O13   0.551190  0.982421  0.436534  -0.637384
    O   O14   0.982421  0.551190  0.563466  -0.637419
    O   O15   0.448811  0.982421  0.563466  -0.637594
    O   O16   0.017579  0.448810  0.563466  -0.637414
    O   O17   0.551190  0.017579  0.563466  -0.637463
    O   O18   0.482421  0.948810  0.936534  -0.637421
    O   O19   0.948811  0.517579  0.936534  -0.637557
    O   O20   0.517579  0.051190  0.936534  -0.637373
    O   O21   0.051190  0.482421  0.936534  -0.637486
    O   O22   0.482421  0.051190  0.063466  -0.637417
    O   O23   0.911347  0.551254  0.487448  -0.664189
    O   O24   0.948811  0.482421  0.063466  -0.637542
    O   O25   0.517579  0.948811  0.063466  -0.637608
    O   O26   0.051190  0.517579  0.063466  -0.637487
    O   O27   0.483897  0.410951  0.536951  -0.583766
    O   O28   0.410951  0.516103  0.536951  -0.583753
    O   O29   0.516103  0.589049  0.536951  -0.583672
    O   O30   0.589049  0.483897  0.536951  -0.583708
    O   O31   0.483897  0.589049  0.463049  -0.583711
    O   O32   0.410951  0.483897  0.463049  -0.583743
    O   O33   0.516103  0.410951  0.463049  -0.583748
    O   O34   0.551254  0.088653  0.487448  -0.664287
    O   O35   0.589049  0.516103  0.463049  -0.583718
    O   O36   0.983897  0.910951  0.036951  -0.583742
    O   O37   0.910951  0.016103  0.036951  -0.583745
    O   O38   0.016103  0.089049  0.036951  -0.583745
    O   O39   0.089049  0.983897  0.036951  -0.583716
    O   O40   0.983897  0.089049  0.963049  -0.583728
    O   O41   0.910951  0.983897  0.963049  -0.583775
    O   O42   0.016103  0.910951  0.963049  -0.583736
    O   O43   0.089049  0.016103  0.963049  -0.583737
    O   O44   0.185490  0.488284  0.578938  -0.518652
    O   O45   0.088654  0.551254  0.512552  -0.664218
    O   O46   0.488285  0.814510  0.578938  -0.518873
    O   O47   0.814510  0.511716  0.578938  -0.518689
    O   O48   0.511717  0.185490  0.578938  -0.518521
    O   O49   0.185490  0.511717  0.421062  -0.518479
    O   O50   0.488283  0.185490  0.421062  -0.518495
    O   O51   0.814510  0.488284  0.421062  -0.518686
    O   O52   0.511716  0.814510  0.421062  -0.518732
    O   O53   0.685490  0.988283  0.078938  -0.518487
    O   O54   0.988284  0.314510  0.078938  -0.518671
    O   O55   0.314510  0.011716  0.078938  -0.518674
    O   O56   0.448747  0.088653  0.512552  -0.664358
    O   O57   0.011717  0.685490  0.078938  -0.518499
    O   O58   0.685490  0.011717  0.921062  -0.518476
    O   O59   0.988284  0.685490  0.921062  -0.518658
    O   O60   0.314510  0.988285  0.921062  -0.518874
    O   O61   0.011717  0.314510  0.921062  -0.518502
    O   O62   0.911347  0.448747  0.512552  -0.664299
    O   O63   0.551254  0.911347  0.512552  -0.664236
    O   O64   0.588654  0.948747  0.987448  -0.664383
