# Generated by REPEAT Assigner based on pymatgen
data_DB0-m2_o1_o3_f0_nbo.sym.69
_audit_creation_date              2022-05-24
_audit_creation_method            REPEAT_Assigner
_cell_length_a                    21.540804
_cell_length_b                    21.540804
_cell_length_c                    38.574377
_cell_angle_alpha                 90.000000
_cell_angle_beta                  90.000000
_cell_angle_gamma                 90.000000
_cell_volume                      17898.751535
_symmetry_space_group_name_H-M    P1
_symmetry_Int_Tables_number       1
loop_
    _symmetry_equiv_pos_site_id
    _symmetry_equiv_pos_as_xyz
    1  x,y,z
loop_
    _atom_site_type_symbol
    _atom_site_label
    _atom_site_fract_x
    _atom_site_fract_y
    _atom_site_fract_z
    _atom_type_partial_charge
    O   O1    0.588431  0.051106  0.509758  -0.555024
    O   O2    0.948893  0.588431  0.509758  -0.554896
    O   O3    0.411568  0.948893  0.509758  -0.554964
    O   O4    0.051106  0.411568  0.509758  -0.555072
    O   O5    0.588431  0.948893  0.490242  -0.554901
    O   O6    0.948893  0.411568  0.490242  -0.554940
    O   O7    0.411568  0.051106  0.490242  -0.555073
    O   O8    0.051106  0.588431  0.490242  -0.555005
    O   O9    0.088431  0.551106  0.009758  -0.555020
    O   O10   0.448893  0.088431  0.009758  -0.554892
    O   O11   0.911568  0.448893  0.009758  -0.554948
    O   O12   0.551106  0.911568  0.009758  -0.554978
    O   O13   0.088431  0.448893  0.990242  -0.554937
    O   O14   0.448893  0.911568  0.990242  -0.554927
    O   O15   0.911568  0.551106  0.990242  -0.555016
    O   O16   0.551106  0.088431  0.990242  -0.554935
    C   C1    0.617544  0.000000  0.500000  0.683462
    C   C2    0.000000  0.617544  0.500000  0.683454
    C   C3    0.382456  0.000000  0.500000  0.683532
    C   C4    0.000000  0.382456  0.500000  0.683539
    C   C5    0.117544  0.500000  0.000000  0.683502
    C   C6    0.500000  0.117544  0.000000  0.683435
    C   C7    0.882456  0.500000  0.000000  0.683536
    C   C8    0.500000  0.882456  0.000000  0.683524
    O   O17   0.482621  0.051128  0.549497  -0.602668
    O   O18   0.948872  0.482621  0.549497  -0.602580
    O   O19   0.517379  0.948872  0.549497  -0.602559
    O   O20   0.051128  0.517379  0.549497  -0.602644
    O   O21   0.482621  0.948872  0.450503  -0.602563
    O   O22   0.948872  0.517379  0.450503  -0.602567
    O   O23   0.517379  0.051128  0.450503  -0.602644
    O   O24   0.051128  0.482621  0.450503  -0.602656
    O   O25   0.982621  0.551128  0.049497  -0.602660
    O   O26   0.448872  0.982621  0.049497  -0.602600
    O   O27   0.017379  0.448872  0.049497  -0.602570
    O   O28   0.551128  0.017379  0.049497  -0.602628
    O   O29   0.982621  0.448872  0.950503  -0.602579
    O   O30   0.448872  0.017379  0.950503  -0.602602
    O   O31   0.017379  0.551128  0.950503  -0.602639
    O   O32   0.551128  0.982621  0.950503  -0.602644
    C   C9    0.500000  0.000000  0.565779  0.701141
    C   C10   0.000000  0.500000  0.565779  0.701139
    C   C11   0.500000  0.000000  0.434221  0.701123
    C   C12   0.000000  0.500000  0.434221  0.701131
    C   C13   0.000000  0.500000  0.065779  0.701119
    C   C14   0.500000  0.000000  0.065779  0.701105
    C   C15   0.000000  0.500000  0.934221  0.701104
    C   C16   0.500000  0.000000  0.934221  0.701087
    Cu  Cu1   0.500000  0.060607  0.500000  0.932456
    Cu  Cu2   0.939393  0.500000  0.500000  0.932398
    Cu  Cu3   0.500000  0.939393  0.500000  0.932399
    Cu  Cu4   0.060607  0.500000  0.500000  0.932443
    Cu  Cu5   0.000000  0.560607  0.000000  0.932429
    Cu  Cu6   0.439393  0.000000  0.000000  0.932417
    Cu  Cu7   0.000000  0.439393  0.000000  0.932416
    Cu  Cu8   0.560607  0.000000  0.000000  0.932373
    C   C17   0.554663  0.991340  0.878154  -0.077196
    C   C18   0.008660  0.554663  0.878154  -0.077236
    C   C19   0.445337  0.008660  0.878154  -0.077347
    C   C20   0.991340  0.445337  0.878154  -0.077251
    C   C21   0.554663  0.008660  0.121846  -0.077251
    C   C22   0.008660  0.445337  0.121846  -0.077370
    C   C23   0.445337  0.991340  0.121846  -0.077265
    C   C24   0.991340  0.554663  0.121846  -0.077185
    C   C25   0.054663  0.491340  0.378154  -0.077182
    C   C26   0.508660  0.054663  0.378154  -0.077261
    C   C27   0.945337  0.508660  0.378154  -0.077342
    C   C28   0.491340  0.945337  0.378154  -0.077268
    C   C29   0.054663  0.508660  0.621846  -0.077261
    C   C30   0.508660  0.945337  0.621846  -0.077364
    C   C31   0.945337  0.491340  0.621846  -0.077269
    C   C32   0.491340  0.054663  0.621846  -0.077184
    H   H1    0.598175  0.985125  0.891643  0.114674
    H   H2    0.014875  0.598175  0.891643  0.114670
    H   H3    0.401824  0.014875  0.891643  0.114712
    H   H4    0.985125  0.401824  0.891643  0.114689
    H   H5    0.598175  0.014875  0.108357  0.114677
    H   H6    0.014875  0.401824  0.108357  0.114703
    H   H7    0.401824  0.985125  0.108357  0.114697
    H   H8    0.985125  0.598175  0.108357  0.114679
    H   H9    0.098175  0.485125  0.391643  0.114678
    H   H10   0.514875  0.098175  0.391643  0.114680
    H   H11   0.901824  0.514875  0.391643  0.114707
    H   H12   0.485125  0.901824  0.391643  0.114693
    H   H13   0.098175  0.514875  0.608357  0.114686
    H   H14   0.514875  0.901824  0.608357  0.114702
    H   H15   0.901824  0.485125  0.608357  0.114697
    H   H16   0.485125  0.098175  0.608357  0.114682
    C   C33   0.554711  0.991665  0.842424  -0.156026
    C   C34   0.008335  0.554711  0.842424  -0.156033
    C   C35   0.445289  0.008335  0.842424  -0.155919
    C   C36   0.991665  0.445289  0.842424  -0.156041
    C   C37   0.554711  0.008335  0.157576  -0.156015
    C   C38   0.008335  0.445289  0.157576  -0.155942
    C   C39   0.445289  0.991665  0.157576  -0.156029
    C   C40   0.991665  0.554711  0.157576  -0.156056
    C   C41   0.054711  0.491665  0.342424  -0.156020
    C   C42   0.508335  0.054711  0.342424  -0.155983
    C   C43   0.945289  0.508335  0.342424  -0.155905
    C   C44   0.491665  0.945289  0.342424  -0.156027
    C   C45   0.054711  0.508335  0.657576  -0.155974
    C   C46   0.508335  0.945289  0.657576  -0.155934
    C   C47   0.945289  0.491665  0.657576  -0.156019
    C   C48   0.491665  0.054711  0.657576  -0.156055
    H   H17   0.598455  0.986638  0.829029  0.110499
    H   H18   0.013361  0.598456  0.829029  0.110562
    H   H19   0.401544  0.013361  0.829030  0.110547
    H   H20   0.986638  0.401544  0.829029  0.110541
    H   H21   0.598456  0.013361  0.170971  0.110554
    H   H22   0.013361  0.401544  0.170971  0.110565
    H   H23   0.401544  0.986638  0.170971  0.110538
    H   H24   0.986638  0.598455  0.170971  0.110505
    H   H25   0.098455  0.486638  0.329029  0.110488
    H   H26   0.513361  0.098455  0.329029  0.110532
    H   H27   0.901544  0.513361  0.329030  0.110541
    H   H28   0.486638  0.901544  0.329029  0.110538
    H   H29   0.098455  0.513361  0.670971  0.110526
    H   H30   0.513361  0.901544  0.670971  0.110560
    H   H31   0.901544  0.486638  0.670971  0.110535
    H   H32   0.486638  0.098455  0.670971  0.110502
    C   C49   0.500000  0.000000  0.824228  0.086184
    C   C50   0.000000  0.500000  0.824228  0.086244
    C   C51   0.500000  0.000000  0.175772  0.086233
    C   C52   0.000000  0.500000  0.175772  0.086225
    C   C53   0.000000  0.500000  0.324228  0.086175
    C   C54   0.500000  0.000000  0.324228  0.086227
    C   C55   0.000000  0.500000  0.675772  0.086217
    C   C56   0.500000  0.000000  0.675772  0.086223
    C   C57   0.500000  0.000000  0.896233  -0.054521
    C   C58   0.000000  0.500000  0.896233  -0.054547
    C   C59   0.500000  0.000000  0.103767  -0.054534
    C   C60   0.000000  0.500000  0.103767  -0.054531
    C   C61   0.000000  0.500000  0.396233  -0.054573
    C   C62   0.500000  0.000000  0.396233  -0.054550
    C   C63   0.000000  0.500000  0.603767  -0.054560
    C   C64   0.500000  0.000000  0.603767  -0.054552
    C   C65   0.460969  0.039171  0.767863  -0.147363
    C   C66   0.960828  0.460969  0.767863  -0.147291
    C   C67   0.539031  0.960828  0.767863  -0.147264
    C   C68   0.039171  0.539031  0.767863  -0.147291
    C   C69   0.460969  0.960828  0.232137  -0.147315
    C   C70   0.960828  0.539031  0.232137  -0.147249
    C   C71   0.539031  0.039171  0.232137  -0.147313
    C   C72   0.039171  0.460969  0.232137  -0.147325
    C   C73   0.960969  0.539171  0.267863  -0.147370
    C   C74   0.460828  0.960969  0.267863  -0.147297
    C   C75   0.039031  0.460828  0.267863  -0.147304
    C   C76   0.539171  0.039031  0.267863  -0.147299
    C   C77   0.960969  0.460828  0.732137  -0.147322
    C   C78   0.460828  0.039031  0.732137  -0.147256
    C   C79   0.039031  0.539171  0.732137  -0.147325
    C   C80   0.539171  0.960969  0.732137  -0.147346
    H   H33   0.430746  0.071204  0.781248  0.116722
    H   H34   0.928796  0.430746  0.781248  0.116774
    H   H35   0.569254  0.928796  0.781248  0.116786
    H   H36   0.071204  0.569254  0.781248  0.116724
    H   H37   0.430746  0.928796  0.218752  0.116778
    H   H38   0.928796  0.569254  0.218752  0.116782
    H   H39   0.569254  0.071204  0.218752  0.116735
    H   H40   0.071204  0.430746  0.218752  0.116718
    H   H41   0.930746  0.571204  0.281248  0.116726
    H   H42   0.428796  0.930746  0.281248  0.116778
    H   H43   0.069254  0.428795  0.281248  0.116808
    H   H44   0.571204  0.069254  0.281248  0.116726
    H   H45   0.930746  0.428796  0.718752  0.116783
    H   H46   0.428796  0.069254  0.718752  0.116785
    H   H47   0.069254  0.571204  0.718752  0.116741
    H   H48   0.571204  0.930746  0.718752  0.116723
    C   C81   0.500000  0.000000  0.713933  0.088679
    C   C82   0.000000  0.500000  0.713933  0.088697
    C   C83   0.500000  0.000000  0.286067  0.088678
    C   C84   0.000000  0.500000  0.286067  0.088711
    C   C85   0.000000  0.500000  0.213933  0.088670
    C   C86   0.500000  0.000000  0.213933  0.088681
    C   C87   0.000000  0.500000  0.786067  0.088666
    C   C88   0.500000  0.000000  0.786067  0.088695
    C   C89   0.717756  0.956441  0.480922  0.139014
    C   C90   0.043558  0.717756  0.480922  0.138934
    C   C91   0.282243  0.043558  0.480922  0.138805
    C   C92   0.956441  0.282243  0.480922  0.138978
    C   C93   0.717756  0.043558  0.519078  0.138940
    C   C94   0.043558  0.282243  0.519078  0.138922
    C   C95   0.282243  0.956441  0.519078  0.138668
    C   C96   0.956441  0.717756  0.519078  0.138996
    C   C97   0.217757  0.456441  0.980922  0.139035
    C   C98   0.543559  0.217756  0.980922  0.138879
    C   C99   0.782243  0.543558  0.980922  0.138873
    C   C100  0.456441  0.782243  0.980922  0.138887
    C   C101  0.217757  0.543559  0.019078  0.138957
    C   C102  0.543559  0.782243  0.019078  0.138874
    C   C103  0.782243  0.456441  0.019078  0.138863
    C   C104  0.456441  0.217756  0.019078  0.138848
    H   H49   0.693384  0.922166  0.465655  0.045315
    H   H50   0.077834  0.693384  0.465655  0.045305
    H   H51   0.306615  0.077834  0.465655  0.045344
    H   H52   0.922166  0.306615  0.465655  0.045330
    H   H53   0.693384  0.077834  0.534345  0.045319
    H   H54   0.077834  0.306615  0.534345  0.045331
    H   H55   0.306615  0.922166  0.534345  0.045432
    H   H56   0.922166  0.693384  0.534345  0.045316
    H   H57   0.193384  0.422166  0.965655  0.045308
    H   H58   0.577834  0.193384  0.965655  0.045316
    H   H59   0.806615  0.577834  0.965655  0.045320
    H   H60   0.422166  0.806615  0.965655  0.045337
    H   H61   0.193384  0.577834  0.034345  0.045325
    H   H62   0.577834  0.806615  0.034345  0.045333
    H   H63   0.806615  0.422166  0.034345  0.045373
    H   H64   0.422166  0.193384  0.034345  0.045338
    C   C105  0.781733  0.956935  0.480485  -0.322374
    C   C106  0.043065  0.781733  0.480485  -0.322136
    C   C107  0.218267  0.043065  0.480485  -0.321913
    C   C108  0.956935  0.218267  0.480485  -0.322263
    C   C109  0.781733  0.043065  0.519515  -0.322194
    C   C110  0.043065  0.218267  0.519515  -0.322098
    C   C111  0.218267  0.956935  0.519515  -0.321812
    C   C112  0.956935  0.781733  0.519515  -0.322361
    C   C113  0.281733  0.456935  0.980485  -0.322319
    C   C114  0.543065  0.281733  0.980485  -0.322036
    C   C115  0.718267  0.543065  0.980485  -0.322022
    C   C116  0.456935  0.718267  0.980485  -0.322002
    C   C117  0.281733  0.543065  0.019515  -0.322114
    C   C118  0.543065  0.718267  0.019515  -0.321972
    C   C119  0.718267  0.456935  0.019515  -0.322093
    C   C120  0.456935  0.281733  0.019515  -0.322036
    C   C121  0.814079  0.000000  0.500000  0.484007
    C   C122  0.000000  0.814079  0.500000  0.484019
    C   C123  0.185921  0.000000  0.500000  0.483457
    C   C124  0.000000  0.185921  0.500000  0.483861
    C   C125  0.314079  0.500000  0.000000  0.483932
    C   C126  0.500000  0.314079  0.000000  0.483699
    C   C127  0.685921  0.500000  0.000000  0.483769
    C   C128  0.500000  0.685921  0.000000  0.483565
    C   C129  0.685484  0.000000  0.500000  -0.199669
    C   C130  0.000000  0.685484  0.500000  -0.199666
    C   C131  0.314516  0.000000  0.500000  -0.199521
    C   C132  0.000000  0.314516  0.500000  -0.199658
    C   C133  0.185484  0.500000  0.000000  -0.199790
    C   C134  0.500000  0.185484  0.000000  -0.199633
    C   C135  0.814516  0.500000  0.000000  -0.199628
    C   C136  0.500000  0.814516  0.000000  -0.199661
    O   O33   0.016173  0.088933  0.471292  -0.532008
    O   O34   0.911067  0.016173  0.471292  -0.532097
    O   O35   0.983827  0.911067  0.471292  -0.532030
    O   O36   0.088933  0.983827  0.471292  -0.531899
    O   O37   0.016173  0.911067  0.528708  -0.532068
    O   O38   0.911067  0.983827  0.528708  -0.532014
    O   O39   0.983827  0.088933  0.528708  -0.531910
    O   O40   0.088933  0.016173  0.528708  -0.531982
    O   O41   0.516173  0.588933  0.971292  -0.531940
    O   O42   0.411067  0.516173  0.971292  -0.532006
    O   O43   0.483827  0.411067  0.971292  -0.532044
    O   O44   0.588933  0.483827  0.971292  -0.531899
    O   O45   0.516173  0.411067  0.028708  -0.532029
    O   O46   0.411067  0.483827  0.028708  -0.531929
    O   O47   0.483827  0.588933  0.028708  -0.531936
    O   O48   0.588933  0.516173  0.028708  -0.531975
    C   C137  0.000000  0.118031  0.500000  0.564021
    C   C138  0.881968  0.000000  0.500000  0.564110
    C   C139  0.000000  0.881968  0.500000  0.564052
    C   C140  0.118031  0.000000  0.500000  0.564130
    C   C141  0.500000  0.618031  0.000000  0.564172
    C   C142  0.381969  0.500000  0.000000  0.563961
    C   C143  0.500000  0.381968  0.000000  0.564202
    C   C144  0.618031  0.500000  0.000000  0.563936
    Cu  Cu9   0.000000  0.000000  0.466085  0.868121
    Cu  Cu10  0.000000  0.000000  0.533915  0.868114
    Cu  Cu11  0.500000  0.500000  0.966085  0.868092
    Cu  Cu12  0.500000  0.500000  0.033915  0.868103
    I   I1    0.828135  0.889308  0.450759  0.006315
    I   I2    0.110691  0.828135  0.450759  0.006197
    I   I3    0.171865  0.110691  0.450759  0.006147
    I   I4    0.889308  0.171865  0.450759  0.006281
    I   I5    0.828135  0.110691  0.549241  0.006200
    I   I6    0.110691  0.171865  0.549241  0.006163
    I   I7    0.171865  0.889308  0.549241  0.006111
    I   I8    0.889308  0.828135  0.549241  0.006323
    I   I9    0.328135  0.389308  0.950759  0.006292
    I   I10   0.610691  0.328135  0.950759  0.006196
    I   I11   0.671865  0.610691  0.950759  0.006167
    I   I12   0.389309  0.671865  0.950759  0.006176
    I   I13   0.328135  0.610691  0.049241  0.006181
    I   I14   0.610691  0.671865  0.049241  0.006162
    I   I15   0.671865  0.389308  0.049241  0.006216
    I   I16   0.389309  0.328135  0.049241  0.006195
