# Generated by REPEAT Assigner based on pymatgen
data_DB0-m2_o1_o3_f0_nbo.sym.104
_audit_creation_date              2022-05-24
_audit_creation_method            REPEAT_Assigner
_cell_length_a                    21.578710
_cell_length_b                    21.578410
_cell_length_c                    38.643878
_cell_angle_alpha                 90.000000
_cell_angle_beta                  90.000000
_cell_angle_gamma                 90.000000
_cell_volume                      17993.912694
_symmetry_space_group_name_H-M    P1
_symmetry_Int_Tables_number       1
loop_
    _symmetry_equiv_pos_site_id
    _symmetry_equiv_pos_as_xyz
    1  x,y,z
loop_
    _atom_site_type_symbol
    _atom_site_label
    _atom_site_fract_x
    _atom_site_fract_y
    _atom_site_fract_z
    _atom_type_partial_charge
    C   C1    0.618023  0.000004  0.499973  0.942921
    C   C2    0.000000  0.500000  0.565994  0.900730
    C   C3    0.461325  0.781147  0.977549  0.027752
    C   C4    0.218852  0.538535  0.022439  0.010118
    C   C5    0.538508  0.781153  0.022476  0.025517
    C   C6    0.781148  0.461465  0.022439  0.009989
    C   C7    0.461492  0.218847  0.022476  0.025118
    C   C8    0.782874  0.961829  0.477770  -0.145180
    C   C9    0.038168  0.782859  0.477769  -0.143999
    C   C10   0.217126  0.038171  0.477770  -0.145359
    C   C11   0.961832  0.217141  0.477769  -0.144091
    C   C12   0.782871  0.038188  0.522176  -0.146690
    C   C13   0.500000  0.000000  0.433974  0.937880
    C   C14   0.038172  0.217135  0.522186  -0.144988
    C   C15   0.217129  0.961812  0.522176  -0.146783
    C   C16   0.961828  0.782865  0.522186  -0.144839
    C   C17   0.282862  0.461558  0.977897  -0.152762
    C   C18   0.538427  0.282846  0.977906  -0.154236
    C   C19   0.717138  0.538442  0.977897  -0.152782
    C   C20   0.461573  0.717154  0.977906  -0.154650
    C   C21   0.282834  0.538143  0.022187  -0.152364
    C   C22   0.538167  0.717165  0.022193  -0.152189
    C   C23   0.717166  0.461857  0.022187  -0.152333
    C   C24   0.000000  0.500000  0.433987  0.904556
    C   C25   0.461833  0.282835  0.022193  -0.151879
    C   C26   0.814894  0.000002  0.499977  -0.030966
    C   C27   0.000005  0.814886  0.499981  -0.045250
    C   C28   0.185106  0.999998  0.499977  -0.030624
    C   C29   0.999995  0.185114  0.499981  -0.045069
    C   C30   0.314882  0.499826  0.000067  -0.038200
    C   C31   0.500152  0.314877  0.000068  -0.025062
    C   C32   0.685118  0.500174  0.000067  -0.038228
    C   C33   0.499848  0.685123  0.000068  -0.024648
    C   C34   0.686151  0.000007  0.499971  -0.210483
    C   C35   0.000000  0.500000  0.065971  0.894638
    C   C36   0.999992  0.686143  0.499979  -0.157462
    C   C37   0.313849  0.999993  0.499971  -0.210462
    C   C38   0.000008  0.313857  0.499979  -0.157650
    C   C39   0.186134  0.499940  0.999973  -0.165102
    C   C40   0.500055  0.186128  0.999995  -0.218420
    C   C41   0.813866  0.500060  0.999973  -0.164953
    C   C42   0.499945  0.813872  0.999995  -0.218963
    C   C43   0.999993  0.117330  0.499983  0.744638
    C   C44   0.882671  0.999997  0.499982  0.734053
    C   C45   0.000007  0.882670  0.499983  0.744840
    C   C46   0.500000  0.000000  0.065961  0.920640
    C   C47   0.117329  0.000003  0.499982  0.733571
    C   C48   0.499843  0.617332  0.000095  0.734173
    C   C49   0.382670  0.499837  0.000093  0.745468
    C   C50   0.500157  0.382668  0.000095  0.734417
    C   C51   0.617330  0.500162  0.000093  0.745491
    C   C52   0.587041  0.922629  0.894883  0.695774
    C   C53   0.077600  0.586899  0.894842  0.886934
    C   C54   0.412959  0.077371  0.894883  0.695803
    C   C55   0.922400  0.413101  0.894842  0.886996
    C   C56   0.587639  0.076690  0.105068  0.696241
    C   C57   0.000000  0.500000  0.933978  0.906535
    C   C58   0.077060  0.412625  0.105125  0.887252
    C   C59   0.412361  0.923310  0.105068  0.696017
    C   C60   0.922940  0.587375  0.105125  0.887171
    C   C61   0.086183  0.421444  0.394844  0.903264
    C   C62   0.578493  0.086179  0.394870  0.688796
    C   C63   0.913818  0.578556  0.394844  0.903234
    C   C64   0.421507  0.913821  0.394871  0.689070
    C   C65   0.086192  0.578533  0.605131  0.902312
    C   C66   0.578429  0.913778  0.605078  0.691299
    C   C67   0.913808  0.421467  0.605131  0.902293
    C   C68   0.500000  0.000000  0.933977  0.929862
    C   C69   0.421571  0.086222  0.605078  0.691655
    C   C70   0.687995  0.921227  0.451998  0.857623
    C   C71   0.078690  0.687964  0.451964  0.851483
    C   C72   0.312005  0.078774  0.451998  0.857629
    C   C73   0.921310  0.312036  0.451964  0.851412
    C   C74   0.687983  0.078833  0.547917  0.855589
    C   C75   0.078774  0.312024  0.547955  0.850299
    C   C76   0.312017  0.921167  0.547917  0.855552
    C   C77   0.921226  0.687976  0.547955  0.850397
    C   C78   0.187909  0.421033  0.952114  0.849480
    C   C79   0.542814  0.964397  0.877638  -0.082238
    C   C80   0.578923  0.187873  0.952128  0.852922
    C   C81   0.812091  0.578967  0.952114  0.849477
    C   C82   0.421077  0.812126  0.952128  0.852665
    C   C83   0.187897  0.578949  0.047776  0.849311
    C   C84   0.578758  0.812119  0.047894  0.853824
    C   C85   0.812103  0.421051  0.047776  0.849363
    C   C86   0.421241  0.187881  0.047894  0.853722
    C   C87   0.035703  0.542746  0.877631  -0.007622
    C   C88   0.457187  0.035604  0.877637  -0.082293
    C   C89   0.999993  0.618016  0.499985  0.913514
    C   C90   0.964297  0.457254  0.877631  -0.007598
    C   C91   0.543084  0.035270  0.122306  -0.085155
    C   C92   0.035431  0.457033  0.122331  -0.012006
    C   C93   0.456915  0.964730  0.122306  -0.084958
    C   C94   0.964570  0.542967  0.122331  -0.012000
    C   C95   0.042198  0.463538  0.377637  -0.021958
    C   C96   0.536423  0.042218  0.377632  -0.076646
    C   C97   0.957802  0.536462  0.377637  -0.021940
    C   C98   0.463577  0.957781  0.377632  -0.076778
    C   C99   0.042217  0.536436  0.622344  -0.022241
    C   C100  0.381977  0.999996  0.499973  0.942780
    C   C101  0.536382  0.957751  0.622322  -0.081271
    C   C102  0.957782  0.463564  0.622344  -0.022206
    C   C103  0.463618  0.042249  0.622322  -0.081534
    C   C104  0.542780  0.965300  0.841911  -0.019373
    C   C105  0.034748  0.542743  0.841906  -0.202497
    C   C106  0.457220  0.034700  0.841911  -0.019287
    C   C107  0.965252  0.457257  0.841906  -0.202571
    C   C108  0.543043  0.034368  0.158034  -0.017269
    C   C109  0.034478  0.457043  0.158058  -0.200472
    C   C110  0.456956  0.965632  0.158034  -0.017372
    C   C111  0.000007  0.381984  0.499985  0.913649
    C   C112  0.965523  0.542957  0.158058  -0.200414
    C   C113  0.042047  0.464390  0.341909  -0.180247
    C   C114  0.535602  0.042050  0.341903  -0.010123
    C   C115  0.957953  0.535610  0.341909  -0.180234
    C   C116  0.464397  0.957950  0.341903  -0.010186
    C   C117  0.042087  0.535562  0.658071  -0.180108
    C   C118  0.535543  0.957898  0.658051  -0.009237
    C   C119  0.957913  0.464438  0.658071  -0.180118
    C   C120  0.464458  0.042102  0.658051  -0.009097
    C   C121  0.500000  0.000000  0.823831  -0.122184
    C   C122  0.118007  0.499963  0.999961  0.908324
    C   C123  0.000000  0.500000  0.823833  0.108623
    C   C124  0.500000  0.000000  0.176119  -0.126782
    C   C125  0.000000  0.500000  0.176137  0.105647
    C   C126  0.000000  0.500000  0.324001  0.063770
    C   C127  0.500000  0.000000  0.323989  -0.139293
    C   C128  0.000000  0.500000  0.675981  0.062855
    C   C129  0.500000  0.000000  0.675967  -0.140402
    C   C130  0.500000  0.000000  0.895923  -0.051364
    C   C131  0.000000  0.500000  0.895921  -0.129893
    C   C132  0.500000  0.000000  0.104016  -0.043386
    C   C133  0.500034  0.118003  0.999973  0.945565
    C   C134  0.000000  0.500000  0.104034  -0.118983
    C   C135  0.000000  0.500000  0.395929  -0.121359
    C   C136  0.500000  0.000000  0.395918  -0.065547
    C   C137  0.000000  0.500000  0.604054  -0.119104
    C   C138  0.500000  0.000000  0.604037  -0.055213
    C   C139  0.444827  0.003100  0.767555  -0.162226
    C   C140  0.996969  0.444820  0.767564  -0.118381
    C   C141  0.555174  0.996900  0.767555  -0.162206
    C   C142  0.003031  0.555180  0.767564  -0.118285
    C   C143  0.444808  0.997226  0.232407  -0.163767
    C   C144  0.881993  0.500037  0.999961  0.908328
    C   C145  0.997260  0.555196  0.232419  -0.119060
    C   C146  0.555192  0.002774  0.232407  -0.163762
    C   C147  0.002740  0.444804  0.232419  -0.119176
    C   C148  0.996747  0.555115  0.268079  -0.147715
    C   C149  0.444888  0.996700  0.268067  -0.151744
    C   C150  0.003253  0.444885  0.268079  -0.147626
    C   C151  0.555111  0.003300  0.268067  -0.151718
    C   C152  0.996467  0.444901  0.731906  -0.149231
    C   C153  0.444907  0.003610  0.731896  -0.152950
    C   C154  0.003533  0.555099  0.731906  -0.149280
    C   C155  0.499966  0.881997  0.999973  0.945766
    C   C156  0.555094  0.996390  0.731896  -0.153004
    C   C157  0.500000  0.000000  0.713880  0.167822
    C   C158  0.000000  0.500000  0.713891  0.109756
    C   C159  0.500000  0.000000  0.286079  0.166425
    C   C160  0.000000  0.500000  0.286091  0.108205
    C   C161  0.000000  0.500000  0.214242  0.031964
    C   C162  0.500000  0.000000  0.214227  0.154495
    C   C163  0.000000  0.500000  0.785736  0.031045
    C   C164  0.500000  0.000000  0.785730  0.151436
    C   C165  0.718887  0.961476  0.477462  0.017188
    C   C166  0.500000  0.000000  0.565980  0.926866
    C   C167  0.038495  0.718871  0.477452  0.001031
    C   C168  0.281113  0.038524  0.477462  0.017210
    C   C169  0.961505  0.281129  0.477452  0.001167
    C   C170  0.718884  0.038546  0.522476  0.019301
    C   C171  0.038518  0.281121  0.522498  0.002295
    C   C172  0.281116  0.961454  0.522476  0.019288
    C   C173  0.961482  0.718879  0.522498  0.002145
    C   C174  0.218866  0.461298  0.977538  0.010219
    C   C175  0.538675  0.218853  0.977549  0.027273
    C   C176  0.781134  0.538702  0.977538  0.010206
    Cu  Cu1   0.499997  0.060982  0.499977  1.019108
    Cu  Cu2   0.000000  0.000000  0.533596  0.946883
    Cu  Cu3   0.500000  0.500000  0.966489  0.948916
    Cu  Cu4   0.500000  0.500000  0.033709  0.948848
    Cu  Cu5   0.939019  0.499996  0.499990  0.971964
    Cu  Cu6   0.500003  0.939018  0.499977  1.019197
    Cu  Cu7   0.060981  0.500004  0.499990  0.971959
    Cu  Cu8   0.000021  0.560972  0.999974  0.969419
    Cu  Cu9   0.439032  0.000021  0.999969  1.018649
    Cu  Cu10  0.999979  0.439028  0.999974  0.969540
    Cu  Cu11  0.560968  0.999978  0.999969  1.018583
    Cu  Cu12  0.000000  0.000000  0.466371  0.945836
    H   H1    0.574550  0.935649  0.828077  0.077752
    H   H2    0.563705  0.074782  0.327737  0.074263
    H   H3    0.671208  0.184038  0.946739  0.360846
    H   H4    0.775926  0.633738  0.915411  0.368346
    H   H5    0.815783  0.671251  0.946676  0.360120
    H   H6    0.366192  0.776023  0.915462  0.364911
    H   H7    0.328792  0.815962  0.946739  0.360824
    H   H8    0.224050  0.633862  0.084418  0.368614
    H   H9    0.184334  0.671274  0.053061  0.360647
    H   H10   0.633283  0.775919  0.084705  0.365185
    H   H11   0.671030  0.815632  0.053467  0.361011
    H   H12   0.775950  0.366139  0.084418  0.368619
    H   H13   0.925251  0.563711  0.327722  0.130398
    H   H14   0.815666  0.328726  0.053062  0.360620
    H   H15   0.366716  0.224081  0.084704  0.365090
    H   H16   0.328970  0.184368  0.053466  0.361040
    H   H17   0.436295  0.925218  0.327737  0.074285
    H   H18   0.074832  0.563620  0.672252  0.130580
    H   H19   0.563596  0.925114  0.672210  0.074280
    H   H20   0.925167  0.436380  0.672252  0.130597
    H   H21   0.436404  0.074886  0.672210  0.074259
    H   H22   0.400845  0.003772  0.780894  0.121155
    H   H23   0.996347  0.400839  0.780909  0.110405
    H   H24   0.599156  0.996228  0.780894  0.121204
    H   H25   0.064416  0.574453  0.828047  0.136302
    H   H26   0.003653  0.599161  0.780909  0.110346
    H   H27   0.400820  0.996820  0.219071  0.121507
    H   H28   0.996874  0.599184  0.219080  0.110576
    H   H29   0.599179  0.003180  0.219071  0.121447
    H   H30   0.003127  0.400816  0.219080  0.110562
    H   H31   0.995488  0.598782  0.281759  0.107026
    H   H32   0.401222  0.995400  0.281744  0.115973
    H   H33   0.004513  0.401218  0.281759  0.107016
    H   H34   0.598778  0.004600  0.281744  0.115921
    H   H35   0.994992  0.401232  0.718236  0.107492
    H   H36   0.425450  0.064351  0.828077  0.077769
    H   H37   0.401240  0.005147  0.718225  0.116149
    H   H38   0.005008  0.598768  0.718236  0.107527
    H   H39   0.598761  0.994853  0.718225  0.116260
    H   H40   0.808165  0.932359  0.460148  0.141152
    H   H41   0.067646  0.808139  0.460150  0.141975
    H   H42   0.191835  0.067641  0.460148  0.141098
    H   H43   0.932354  0.191861  0.460150  0.142016
    H   H44   0.808151  0.067664  0.539799  0.141931
    H   H45   0.067654  0.191859  0.539806  0.142642
    H   H46   0.191849  0.932335  0.539799  0.141968
    H   H47   0.935583  0.425547  0.828047  0.136337
    H   H48   0.932346  0.808141  0.539806  0.142593
    H   H49   0.308140  0.431965  0.960333  0.144616
    H   H50   0.568026  0.308106  0.960340  0.144045
    H   H51   0.691860  0.568035  0.960333  0.144589
    H   H52   0.431974  0.691894  0.960340  0.144203
    H   H53   0.308065  0.567701  0.039792  0.145032
    H   H54   0.567732  0.691920  0.039788  0.143630
    H   H55   0.691935  0.432299  0.039792  0.145070
    H   H56   0.432268  0.308079  0.039788  0.143520
    H   H57   0.669568  0.880068  0.895547  0.330095
    H   H58   0.575043  0.063779  0.171860  0.077905
    H   H59   0.670484  0.952946  0.879631  0.270243
    H   H60   0.137219  0.648093  0.874492  0.374684
    H   H61   0.078555  0.679644  0.897457  0.369604
    H   H62   0.330433  0.119932  0.895547  0.330066
    H   H63   0.329516  0.047054  0.879631  0.270211
    H   H64   0.862781  0.351907  0.874492  0.374710
    H   H65   0.921445  0.320356  0.897457  0.369618
    H   H66   0.670570  0.118473  0.104378  0.330331
    H   H67   0.670809  0.045594  0.120303  0.270543
    H   H68   0.136204  0.350978  0.125484  0.374403
    H   H69   0.063949  0.425143  0.171913  0.136259
    H   H70   0.077366  0.319876  0.102464  0.369215
    H   H71   0.329429  0.881527  0.104377  0.330336
    H   H72   0.329190  0.954406  0.120303  0.270490
    H   H73   0.863796  0.649022  0.125484  0.374361
    H   H74   0.922634  0.680124  0.102464  0.369171
    H   H75   0.146243  0.360725  0.374455  0.377596
    H   H76   0.178950  0.419352  0.396949  0.371935
    H   H77   0.622341  0.168044  0.395269  0.330444
    H   H78   0.549720  0.169812  0.379009  0.271218
    H   H79   0.853758  0.639276  0.374455  0.377717
    H   H80   0.424956  0.936221  0.171860  0.077914
    H   H81   0.821050  0.580648  0.396949  0.371942
    H   H82   0.377658  0.831956  0.395269  0.330508
    H   H83   0.450279  0.830188  0.379010  0.271238
    H   H84   0.146317  0.639206  0.625501  0.377588
    H   H85   0.178951  0.580585  0.602975  0.371784
    H   H86   0.622166  0.831858  0.604642  0.330335
    H   H87   0.549511  0.830149  0.620853  0.271359
    H   H88   0.853683  0.360794  0.625501  0.377570
    H   H89   0.821049  0.419415  0.602975  0.371771
    H   H90   0.377834  0.168142  0.604642  0.330404
    H   H91   0.936051  0.574857  0.171913  0.136126
    H   H92   0.450490  0.169851  0.620854  0.271403
    H   H93   0.724300  0.867364  0.414926  0.364753
    H   H94   0.685132  0.828990  0.446142  0.360155
    H   H95   0.132553  0.724226  0.414881  0.367948
    H   H96   0.170911  0.684996  0.446069  0.359361
    H   H97   0.275700  0.132638  0.414927  0.364418
    H   H98   0.314868  0.171011  0.446144  0.360253
    H   H99   0.867447  0.275774  0.414881  0.367963
    H   H100  0.829089  0.315004  0.446069  0.359408
    H   H101  0.724265  0.132848  0.584927  0.364731
    H   H102  0.074749  0.436288  0.327722  0.130405
    H   H103  0.685055  0.171088  0.553679  0.360694
    H   H104  0.132831  0.275783  0.584960  0.368158
    H   H105  0.171021  0.315042  0.553721  0.359723
    H   H106  0.275735  0.867152  0.584927  0.364725
    H   H107  0.314945  0.828912  0.553679  0.360697
    H   H108  0.867169  0.724217  0.584960  0.368184
    H   H109  0.828979  0.684958  0.553721  0.359813
    H   H110  0.224074  0.366262  0.915411  0.368358
    H   H111  0.184216  0.328749  0.946676  0.360175
    H   H112  0.633808  0.223977  0.915462  0.364874
    N   N1    0.646066  0.911176  0.879555  -0.748998
    N   N2    0.591099  0.144737  0.379266  -0.747900
    N   N3    0.855548  0.591626  0.379029  -1.038411
    N   N4    0.408901  0.855263  0.379266  -0.748041
    N   N5    0.144493  0.591560  0.620918  -1.037798
    N   N6    0.590925  0.855165  0.620644  -0.748315
    N   N7    0.855507  0.408440  0.620918  -1.037742
    N   N8    0.409075  0.144835  0.620644  -0.748461
    N   N9    0.716716  0.864706  0.441566  -1.000675
    N   N10   0.135231  0.716633  0.441521  -0.991799
    N   N11   0.283284  0.135296  0.441567  -1.000182
    N   N12   0.089673  0.645611  0.879290  -1.027795
    N   N13   0.864769  0.283367  0.441521  -0.991852
    N   N14   0.716665  0.135410  0.558286  -1.001079
    N   N15   0.135378  0.283385  0.558318  -0.992377
    N   N16   0.283335  0.864590  0.558286  -1.001057
    N   N17   0.864622  0.716614  0.558318  -0.992564
    N   N18   0.216193  0.364088  0.942038  -0.993284
    N   N19   0.635928  0.216075  0.942089  -1.000783
    N   N20   0.783807  0.635912  0.942038  -0.993191
    N   N21   0.364072  0.783925  0.942089  -1.000794
    N   N22   0.216241  0.635906  0.057783  -0.994049
    N   N23   0.353934  0.088824  0.879555  -0.748983
    N   N24   0.635599  0.783741  0.058075  -1.001530
    N   N25   0.783759  0.364094  0.057783  -0.994016
    N   N26   0.364400  0.216259  0.058075  -1.001275
    N   N27   0.910327  0.354389  0.879290  -1.027864
    N   N28   0.646785  0.087592  0.120377  -0.749772
    N   N29   0.088688  0.353803  0.120654  -1.027236
    N   N30   0.353215  0.912407  0.120377  -0.749622
    N   N31   0.911312  0.646197  0.120654  -1.027082
    N   N32   0.144452  0.408375  0.379029  -1.038244
    O   O1    0.588874  0.051772  0.491971  -0.637472
    O   O2    0.448275  0.088881  0.991912  -0.637401
    O   O3    0.911117  0.448268  0.991928  -0.608761
    O   O4    0.551725  0.911119  0.991912  -0.637410
    O   O5    0.088845  0.448223  0.008018  -0.609074
    O   O6    0.448226  0.911158  0.008027  -0.637020
    O   O7    0.911154  0.551777  0.008018  -0.609021
    O   O8    0.551774  0.088842  0.008027  -0.636926
    O   O9    0.514422  0.051745  0.549697  -0.673368
    O   O10   0.948257  0.514423  0.549709  -0.632208
    O   O11   0.485578  0.948255  0.549697  -0.673474
    O   O12   0.948226  0.588873  0.491984  -0.609018
    O   O13   0.051743  0.485577  0.549709  -0.632209
    O   O14   0.514426  0.948256  0.450257  -0.675036
    O   O15   0.948258  0.485570  0.450270  -0.633070
    O   O16   0.485574  0.051744  0.450257  -0.674919
    O   O17   0.051742  0.514430  0.450270  -0.633037
    O   O18   0.014520  0.551721  0.049686  -0.628555
    O   O19   0.448284  0.014540  0.049678  -0.674451
    O   O20   0.985480  0.448279  0.049686  -0.628586
    O   O21   0.551716  0.985460  0.049678  -0.674456
    O   O22   0.014477  0.448266  0.950262  -0.632126
    O   O23   0.411126  0.948227  0.491971  -0.637263
    O   O24   0.448270  0.985502  0.950259  -0.677362
    O   O25   0.985523  0.551734  0.950262  -0.632087
    O   O26   0.551731  0.014498  0.950259  -0.677039
    O   O27   0.981399  0.088266  0.471704  -0.610667
    O   O28   0.911735  0.981399  0.471704  -0.609570
    O   O29   0.018601  0.911734  0.471704  -0.610685
    O   O30   0.088265  0.018601  0.471703  -0.609206
    O   O31   0.981409  0.911731  0.528263  -0.611193
    O   O32   0.911732  0.018592  0.528263  -0.609915
    O   O33   0.018591  0.088269  0.528263  -0.611132
    O   O34   0.051774  0.411127  0.491984  -0.609021
    O   O35   0.088268  0.981408  0.528263  -0.609874
    O   O36   0.481249  0.588236  0.971824  -0.610404
    O   O37   0.411765  0.481249  0.971822  -0.611644
    O   O38   0.518751  0.411764  0.971824  -0.610396
    O   O39   0.588235  0.518751  0.971822  -0.611596
    O   O40   0.481513  0.411708  0.028375  -0.610298
    O   O41   0.411709  0.518486  0.028373  -0.612006
    O   O42   0.518487  0.588292  0.028375  -0.610350
    O   O43   0.588291  0.481513  0.028373  -0.612047
    O   O44   0.572290  0.894213  0.920843  -0.512299
    O   O45   0.588879  0.948235  0.507982  -0.637552
    O   O46   0.105635  0.572310  0.920958  -0.582940
    O   O47   0.427711  0.105787  0.920843  -0.512328
    O   O48   0.894365  0.427690  0.920958  -0.582978
    O   O49   0.573088  0.105297  0.079137  -0.512244
    O   O50   0.105254  0.427071  0.079036  -0.582162
    O   O51   0.426912  0.894703  0.079137  -0.512099
    O   O52   0.894746  0.572929  0.079036  -0.582160
    O   O53   0.071746  0.394024  0.421186  -0.591296
    O   O54   0.606266  0.071501  0.421056  -0.511758
    O   O55   0.928254  0.605976  0.421186  -0.591244
    O   O56   0.948238  0.411120  0.507993  -0.609588
    O   O57   0.393734  0.928499  0.421056  -0.511872
    O   O58   0.071719  0.605992  0.578808  -0.590619
    O   O59   0.606275  0.928490  0.578922  -0.512139
    O   O60   0.928281  0.394008  0.578808  -0.590617
    O   O61   0.393726  0.071511  0.578922  -0.512449
    O   O62   0.640332  0.937569  0.437819  -0.564206
    O   O63   0.062274  0.640345  0.437766  -0.574621
    O   O64   0.359668  0.062432  0.437820  -0.564528
    O   O65   0.937726  0.359655  0.437766  -0.574623
    O   O66   0.640343  0.062491  0.562120  -0.562870
    O   O67   0.411121  0.051765  0.507982  -0.637313
    O   O68   0.062377  0.359620  0.562185  -0.574012
    O   O69   0.359657  0.937509  0.562120  -0.562868
    O   O70   0.937623  0.640380  0.562185  -0.573963
    O   O71   0.140568  0.437661  0.937697  -0.574531
    O   O72   0.562224  0.140594  0.937673  -0.563027
    O   O73   0.859432  0.562339  0.937697  -0.574553
    O   O74   0.437777  0.859406  0.937672  -0.562878
    O   O75   0.140501  0.562449  0.062181  -0.575026
    O   O76   0.562158  0.859524  0.062253  -0.563952
    O   O77   0.859499  0.437551  0.062181  -0.575095
    O   O78   0.051762  0.588880  0.507993  -0.609570
    O   O79   0.437841  0.140476  0.062253  -0.563888
    O   O80   0.088883  0.551732  0.991928  -0.608721
