# Generated by REPEAT Assigner based on pymatgen
data_DB0-m2_o1_o2_f0_pcu.sym.22_sqe
_audit_creation_date              2022-05-24
_audit_creation_method            REPEAT_Assigner
_cell_length_a                    10.849557
_cell_length_b                    9.407906
_cell_length_c                    15.067181
_cell_angle_alpha                 90.000000
_cell_angle_beta                  90.005977
_cell_angle_gamma                 90.000000
_cell_volume                      1537.931516
_symmetry_space_group_name_H-M    P1
_symmetry_Int_Tables_number       1
loop_
    _symmetry_equiv_pos_site_id
    _symmetry_equiv_pos_as_xyz
    1  x,y,z
loop_
    _atom_site_type_symbol
    _atom_site_label
    _atom_site_fract_x
    _atom_site_fract_y
    _atom_site_fract_z
    _atom_type_partial_charge
    O   O1   0.320029  0.622267  0.502827  -0.589263
    O   O2   0.678676  0.377394  0.496187  -0.581420
    O   O3   0.678232  0.621653  0.503528  -0.581560
    O   O4   0.320452  0.378097  0.497731  -0.612692
    N   N1   0.499775  0.854611  0.499612  0.040345
    N   N2   0.499450  0.144839  0.500109  0.098295
    C   C1   0.262308  0.500124  0.500797  0.593366
    C   C2   0.736266  0.499645  0.500445  0.594850
    O   O5   0.503671  0.620978  0.371051  -0.655263
    O   O6   0.504821  0.378399  0.628958  -0.670165
    O   O7   0.502633  0.622930  0.628977  -0.636780
    O   O8   0.502570  0.376478  0.370990  -0.652102
    C   C3   0.500262  0.498699  0.329463  0.941181
    C   C4   0.500935  0.500754  0.670267  0.939737
    Cu  Cu1  0.499181  0.642017  0.499826  0.851736
    Cu  Cu2  0.499660  0.357513  0.500406  0.851144
    H   H1   0.356521  0.129802  0.405393  0.175538
    H   H2   0.636721  0.868447  0.598397  0.124272
    H   H3   0.633931  0.130383  0.599727  0.168594
    H   H4   0.358202  0.870342  0.404243  0.112381
    C   C5   0.420325  0.073397  0.447967  -0.123653
    C   C6   0.575925  0.925886  0.554333  -0.020884
    C   C7   0.574601  0.072602  0.555144  -0.121797
    C   C8   0.421431  0.926803  0.447097  -0.008385
    C   C9   0.062596  0.373122  0.500582  -0.111038
    C   C10  0.935929  0.627144  0.500560  -0.115790
    C   C11  0.935522  0.373303  0.500220  -0.114715
    C   C12  0.063016  0.626628  0.500798  -0.121665
    C   C13  0.600507  0.553642  0.094402  -0.330137
    C   C14  0.605197  0.459189  0.904734  -0.334185
    C   C15  0.396471  0.539750  0.904698  -0.321167
    C   C16  0.400065  0.448363  0.094027  -0.331568
    H   H5   0.676736  0.598202  0.057622  0.160514
    H   H6   0.684938  0.424918  0.941995  0.164750
    H   H7   0.317378  0.573842  0.942210  0.161590
    H   H8   0.323694  0.405273  0.057066  0.161051
    C   C17  0.600864  0.553452  0.186406  0.328596
    C   C18  0.605429  0.458738  0.812820  0.352969
    C   C19  0.395472  0.540548  0.812809  0.317086
    C   C20  0.399317  0.447760  0.185898  0.319166
    C   C21  0.500096  0.500040  0.232047  -0.597215
    C   C22  0.500593  0.500122  0.767132  -0.601926
    H   H9   0.110443  0.272452  0.499382  0.111639
    H   H10  0.888447  0.728447  0.499038  0.114789
    H   H11  0.887466  0.272646  0.498804  0.111706
    H   H12  0.111112  0.727046  0.499364  0.119027
    C   C23  0.500711  0.500135  0.048082  0.143412
    C   C24  0.500885  0.499685  0.950572  0.123239
    C   C25  0.871391  0.500209  0.501191  0.020550
    C   C26  0.127100  0.499804  0.501587  0.031495
    C   C27  0.710040  0.607169  0.237513  0.148467
    O   O9   0.807906  0.639002  0.181044  -0.567412
    H   H13  0.741657  0.526123  0.286050  0.065484
    H   H14  0.683877  0.705104  0.273600  0.003311
    H   H15  0.824695  0.740993  0.191807  0.359256
    C   C28  0.718582  0.417509  0.761977  0.106510
    O   O10  0.817095  0.392221  0.818999  -0.551369
    H   H16  0.745112  0.504177  0.715763  0.065666
    H   H17  0.700181  0.318780  0.724148  0.008885
    H   H18  0.841476  0.293051  0.806055  0.356575
    C   C29  0.282057  0.582235  0.762131  0.152568
    O   O11  0.183553  0.608118  0.819403  -0.564733
    H   H19  0.255966  0.494919  0.716367  0.057848
    H   H20  0.300513  0.679983  0.723037  0.001491
    H   H21  0.160290  0.708209  0.807936  0.360867
    C   C30  0.289743  0.394895  0.236480  0.163420
    O   O12  0.191759  0.363425  0.179706  -0.557899
    H   H22  0.259996  0.478462  0.283464  0.050029
    H   H23  0.314982  0.298119  0.274301  -0.013056
    H   H24  0.173443  0.261758  0.190584  0.354445
