# Generated by REPEAT Assigner based on pymatgen
data_DB0-m2_o1_o2_f0_pcu.sym.2_sqe
_audit_creation_date              2022-05-24
_audit_creation_method            REPEAT_Assigner
_cell_length_a                    10.854123
_cell_length_b                    9.401041
_cell_length_c                    15.175303
_cell_angle_alpha                 90.000000
_cell_angle_beta                  90.005937
_cell_angle_gamma                 90.000000
_cell_volume                      1548.488691
_symmetry_space_group_name_H-M    P1
_symmetry_Int_Tables_number       1
loop_
    _symmetry_equiv_pos_site_id
    _symmetry_equiv_pos_as_xyz
    1  x,y,z
loop_
    _atom_site_type_symbol
    _atom_site_label
    _atom_site_fract_x
    _atom_site_fract_y
    _atom_site_fract_z
    _atom_type_partial_charge
    O   O1   0.320343  0.622196  0.497111  -0.625575
    O   O2   0.678774  0.377961  0.501946  -0.578987
    O   O3   0.678423  0.622190  0.497900  -0.633386
    O   O4   0.320720  0.378323  0.504997  -0.584695
    N   N1   0.498910  0.855046  0.500966  -0.120456
    N   N2   0.499711  0.145326  0.500159  0.057278
    C   C1   0.262599  0.500202  0.501266  0.680616
    C   C2   0.736512  0.500136  0.499920  0.682421
    O   O5   0.495729  0.622803  0.372451  -0.520934
    O   O6   0.506111  0.377636  0.628431  -0.522997
    O   O7   0.494408  0.621198  0.628604  -0.537614
    O   O8   0.501638  0.379155  0.372341  -0.522142
    C   C3   0.498663  0.500979  0.330324  0.630092
    C   C4   0.500397  0.499325  0.670450  0.643731
    Cu  Cu1  0.499345  0.642242  0.500591  0.878504
    Cu  Cu2  0.499690  0.358129  0.500371  0.774510
    H   H1   0.349560  0.130478  0.412616  0.089090
    H   H2   0.655134  0.870042  0.582885  0.167977
    H   H3   0.654436  0.130289  0.583615  0.103224
    H   H4   0.348194  0.870043  0.413959  0.184251
    C   C5   0.416945  0.073550  0.451406  -0.010536
    C   C6   0.586090  0.926846  0.545628  0.034731
    C   C7   0.585895  0.073502  0.545818  -0.038388
    C   C8   0.416396  0.926870  0.451964  0.002567
    C   C9   0.063075  0.373374  0.504728  -0.090109
    C   C10  0.936028  0.626982  0.497453  -0.077997
    C   C11  0.936023  0.373391  0.504207  -0.102888
    C   C12  0.063085  0.626965  0.497864  -0.067525
    C   C13  0.455821  0.615519  0.093917  -0.150397
    C   C14  0.456165  0.383235  0.905919  -0.126032
    C   C15  0.544329  0.614566  0.906066  -0.148509
    C   C16  0.542954  0.383933  0.094654  -0.127720
    H   H5   0.418814  0.705632  0.058459  0.111074
    H   H6   0.418426  0.293160  0.941013  0.099101
    H   H7   0.581864  0.704630  0.941267  0.111236
    H   H8   0.580229  0.293399  0.059800  0.098522
    C   C17  0.453212  0.616303  0.184803  0.070862
    C   C18  0.454250  0.383185  0.814992  0.022148
    C   C19  0.546659  0.614692  0.815198  0.072685
    C   C20  0.545147  0.384395  0.185541  0.026158
    C   C21  0.498994  0.500661  0.232501  -0.027378
    C   C22  0.500494  0.499039  0.768030  -0.029602
    H   H9   0.110966  0.272713  0.507673  0.109991
    H   H10  0.888145  0.727650  0.494666  0.093995
    H   H11  0.888159  0.272717  0.506867  0.113459
    H   H12  0.111000  0.727628  0.495358  0.089645
    C   C23  0.499494  0.499395  0.048439  0.091973
    C   C24  0.500044  0.498979  0.951837  0.087368
    C   C25  0.871696  0.500187  0.500404  -0.051584
    C   C26  0.127413  0.500148  0.501356  -0.055891
    Cl  Cl1  0.383882  0.764524  0.234685  -0.116759
    Cl  Cl2  0.384511  0.236654  0.763364  -0.069235
    Cl  Cl3  0.616410  0.761485  0.764034  -0.119193
    Cl  Cl4  0.614497  0.236804  0.236356  -0.070680
