# Generated by REPEAT Assigner based on pymatgen
data_DB0-m2_o1_o2_f0_nbo.sym.84_sqe
_audit_creation_date              2022-05-24
_audit_creation_method            REPEAT_Assigner
_cell_length_a                    21.469547
_cell_length_b                    21.469547
_cell_length_c                    30.163297
_cell_angle_alpha                 90.000000
_cell_angle_beta                  90.000000
_cell_angle_gamma                 90.000000
_cell_volume                      13903.513400
_symmetry_space_group_name_H-M    P1
_symmetry_Int_Tables_number       1
loop_
    _symmetry_equiv_pos_site_id
    _symmetry_equiv_pos_as_xyz
    1  x,y,z
loop_
    _atom_site_type_symbol
    _atom_site_label
    _atom_site_fract_x
    _atom_site_fract_y
    _atom_site_fract_z
    _atom_type_partial_charge
    O   O1    0.089034  0.448349  0.511499  -0.463070
    O   O2    0.448349  0.910966  0.511499  -0.463055
    O   O3    0.910966  0.551651  0.511499  -0.463043
    O   O4    0.551651  0.089034  0.511499  -0.463067
    O   O5    0.089034  0.551651  0.488501  -0.463045
    O   O6    0.448349  0.089034  0.488501  -0.463057
    O   O7    0.910966  0.448349  0.488501  -0.463074
    O   O8    0.551651  0.910966  0.488501  -0.463069
    O   O9    0.589034  0.948349  0.011499  -0.463026
    O   O10   0.948349  0.410966  0.011499  -0.463082
    O   O11   0.410966  0.051651  0.011499  -0.463057
    O   O12   0.051651  0.589034  0.011499  -0.463034
    O   O13   0.589034  0.051651  0.988501  -0.463056
    O   O14   0.948349  0.589034  0.988501  -0.463078
    O   O15   0.410966  0.948349  0.988501  -0.463048
    O   O16   0.051651  0.410966  0.988501  -0.463040
    C   C1    0.118118  0.500000  0.500000  0.481422
    C   C2    0.500000  0.881882  0.500000  0.481448
    C   C3    0.881882  0.500000  0.500000  0.481436
    C   C4    0.500000  0.118118  0.500000  0.481440
    C   C5    0.618118  0.000000  0.000000  0.481418
    C   C6    0.000000  0.381882  0.000000  0.481441
    C   C7    0.381882  0.000000  0.000000  0.481441
    C   C8    0.000000  0.618118  0.000000  0.481432
    O   O17   0.016266  0.448444  0.436658  -0.586256
    O   O18   0.448444  0.983734  0.436658  -0.586243
    O   O19   0.983734  0.551556  0.436658  -0.586234
    O   O20   0.551556  0.016266  0.436658  -0.586259
    O   O21   0.016266  0.551556  0.563342  -0.586231
    O   O22   0.448444  0.016266  0.563342  -0.586242
    O   O23   0.983734  0.448444  0.563342  -0.586252
    O   O24   0.551556  0.983734  0.563342  -0.586252
    O   O25   0.516266  0.948444  0.936658  -0.586254
    O   O26   0.948444  0.483734  0.936658  -0.586265
    O   O27   0.483734  0.051556  0.936658  -0.586245
    O   O28   0.051556  0.516266  0.936658  -0.586229
    O   O29   0.516266  0.051556  0.063342  -0.586251
    O   O30   0.948444  0.516266  0.063342  -0.586265
    O   O31   0.483734  0.948444  0.063342  -0.586286
    O   O32   0.051556  0.483734  0.063342  -0.586231
    C   C9    0.282424  0.550579  0.516462  -0.040752
    C   C10   0.550579  0.717576  0.516462  -0.040757
    C   C11   0.717576  0.449421  0.516462  -0.040760
    C   C12   0.449421  0.282424  0.516462  -0.040755
    C   C13   0.282424  0.449421  0.483538  -0.040748
    C   C14   0.550579  0.282424  0.483538  -0.040755
    C   C15   0.717576  0.550579  0.483538  -0.040755
    C   C16   0.449421  0.717576  0.483538  -0.040746
    C   C17   0.782424  0.050579  0.016462  -0.040749
    C   C18   0.050579  0.217576  0.016462  -0.040758
    C   C19   0.217576  0.949421  0.016462  -0.040757
    C   C20   0.949421  0.782424  0.016462  -0.040749
    C   C21   0.782424  0.949421  0.983538  -0.040742
    C   C22   0.050579  0.782424  0.983538  -0.040753
    C   C23   0.217576  0.050579  0.983538  -0.040758
    C   C24   0.949421  0.217576  0.983538  -0.040750
    C   C25   0.000000  0.500000  0.415724  0.745881
    C   C26   0.500000  0.000000  0.415724  0.745899
    C   C27   0.000000  0.500000  0.584276  0.745879
    C   C28   0.500000  0.000000  0.584276  0.745899
    C   C29   0.500000  0.000000  0.915724  0.745861
    C   C30   0.000000  0.500000  0.915724  0.745897
    C   C31   0.500000  0.000000  0.084276  0.745858
    C   C32   0.000000  0.500000  0.084276  0.745894
    Cu  Cu1   0.000000  0.439012  0.500000  0.903373
    Cu  Cu2   0.439012  0.000000  0.500000  0.903431
    Cu  Cu3   0.000000  0.560988  0.500000  0.903445
    Cu  Cu4   0.560988  0.000000  0.500000  0.903407
    Cu  Cu5   0.500000  0.939012  0.000000  0.903377
    Cu  Cu6   0.939012  0.500000  0.000000  0.903354
    Cu  Cu7   0.500000  0.060988  0.000000  0.903434
    Cu  Cu8   0.060988  0.500000  0.000000  0.903472
    C   C33   0.186060  0.500000  0.500000  0.197685
    C   C34   0.500000  0.813940  0.500000  0.197661
    C   C35   0.813940  0.500000  0.500000  0.197673
    C   C36   0.500000  0.186060  0.500000  0.197668
    C   C37   0.686060  0.000000  0.000000  0.197695
    C   C38   0.000000  0.313940  0.000000  0.197664
    C   C39   0.313940  0.000000  0.000000  0.197667
    C   C40   0.000000  0.686060  0.000000  0.197665
    C   C41   0.218243  0.551290  0.515319  -0.172896
    C   C42   0.551290  0.781757  0.515319  -0.172888
    C   C43   0.781757  0.448710  0.515319  -0.172892
    C   C44   0.448710  0.218243  0.515319  -0.172892
    C   C45   0.218243  0.448710  0.484681  -0.172900
    C   C46   0.551290  0.218243  0.484681  -0.172893
    C   C47   0.781757  0.551290  0.484681  -0.172896
    C   C48   0.448710  0.781757  0.484681  -0.172893
    C   C49   0.718243  0.051290  0.015319  -0.172900
    C   C50   0.051290  0.281757  0.015319  -0.172888
    C   C51   0.281757  0.948710  0.015319  -0.172893
    C   C52   0.948710  0.718243  0.015319  -0.172892
    C   C53   0.718243  0.948710  0.984681  -0.172896
    C   C54   0.051290  0.718243  0.984681  -0.172885
    C   C55   0.281757  0.051290  0.984681  -0.172891
    C   C56   0.948710  0.281757  0.984681  -0.172894
    C   C57   0.023987  0.549886  0.297589  -0.257234
    C   C58   0.549886  0.976013  0.297589  -0.257180
    C   C59   0.976013  0.450114  0.297589  -0.257230
    C   C60   0.450114  0.023987  0.297589  -0.257199
    C   C61   0.023987  0.450114  0.702411  -0.257224
    C   C62   0.549886  0.023987  0.702411  -0.257225
    C   C63   0.976013  0.549886  0.702411  -0.257233
    C   C64   0.450114  0.976013  0.702411  -0.257224
    C   C65   0.523987  0.049886  0.797589  -0.257223
    C   C66   0.049886  0.476013  0.797589  -0.257226
    C   C67   0.476013  0.950114  0.797589  -0.257213
    C   C68   0.950114  0.523987  0.797589  -0.257219
    C   C69   0.523987  0.950114  0.202411  -0.257085
    C   C70   0.049886  0.523987  0.202411  -0.257217
    C   C71   0.476013  0.049886  0.202411  -0.257188
    C   C72   0.950114  0.476013  0.202411  -0.257215
    H   H1    0.042813  0.589271  0.279850  0.149117
    H   H2    0.589270  0.957187  0.279850  0.149098
    H   H3    0.957187  0.410729  0.279850  0.149117
    H   H4    0.410729  0.042813  0.279850  0.149109
    H   H5    0.042813  0.410729  0.720149  0.149113
    H   H6    0.589270  0.042813  0.720149  0.149116
    H   H7    0.957187  0.589271  0.720149  0.149119
    H   H8    0.410729  0.957187  0.720149  0.149114
    H   H9    0.542813  0.089271  0.779850  0.149115
    H   H10   0.089270  0.457187  0.779850  0.149117
    H   H11   0.457187  0.910729  0.779851  0.149113
    H   H12   0.910729  0.542813  0.779850  0.149111
    H   H13   0.542813  0.910729  0.220149  0.149064
    H   H14   0.089270  0.542813  0.220149  0.149112
    H   H15   0.457187  0.089271  0.220149  0.149109
    H   H16   0.910729  0.457187  0.220149  0.149111
    C   C73   0.026003  0.549563  0.343344  0.039594
    C   C74   0.549563  0.973997  0.343344  0.039571
    C   C75   0.973997  0.450437  0.343344  0.039586
    C   C76   0.450437  0.026003  0.343344  0.039573
    C   C77   0.026003  0.450437  0.656656  0.039591
    C   C78   0.549563  0.026003  0.656656  0.039605
    C   C79   0.973997  0.549563  0.656656  0.039603
    C   C80   0.450437  0.973997  0.656656  0.039599
    C   C81   0.526003  0.049563  0.843344  0.039562
    C   C82   0.049563  0.473997  0.843344  0.039591
    C   C83   0.473997  0.950437  0.843344  0.039546
    C   C84   0.950437  0.526003  0.843344  0.039579
    C   C85   0.526003  0.950437  0.156656  0.039234
    C   C86   0.049563  0.526003  0.156656  0.039591
    C   C87   0.473997  0.049563  0.156656  0.039515
    C   C88   0.950437  0.473997  0.156656  0.039582
    C   C89   0.000000  0.500000  0.366858  -0.221475
    C   C90   0.500000  0.000000  0.366858  -0.221479
    C   C91   0.000000  0.500000  0.633142  -0.221484
    C   C92   0.500000  0.000000  0.633142  -0.221505
    C   C93   0.500000  0.000000  0.866858  -0.221425
    C   C94   0.000000  0.500000  0.866858  -0.221487
    C   C95   0.500000  0.000000  0.133142  -0.221279
    C   C96   0.000000  0.500000  0.133142  -0.221490
    H   H17   0.193332  0.591458  0.527658  0.104218
    H   H18   0.591458  0.806668  0.527658  0.104216
    H   H19   0.806668  0.408542  0.527658  0.104218
    H   H20   0.408542  0.193332  0.527658  0.104216
    H   H21   0.193332  0.408542  0.472342  0.104218
    H   H22   0.591458  0.193332  0.472342  0.104217
    H   H23   0.806668  0.591458  0.472342  0.104219
    H   H24   0.408542  0.806668  0.472342  0.104217
    H   H25   0.693332  0.091458  0.027658  0.104217
    H   H26   0.091458  0.306668  0.027658  0.104215
    H   H27   0.306668  0.908542  0.027658  0.104219
    H   H28   0.908542  0.693332  0.027658  0.104214
    H   H29   0.693332  0.908542  0.972342  0.104210
    H   H30   0.091458  0.693332  0.972342  0.104213
    H   H31   0.306668  0.091458  0.972342  0.104217
    H   H32   0.908542  0.306668  0.972342  0.104216
    C   C97   0.000000  0.500000  0.274411  0.177039
    C   C98   0.500000  0.000000  0.274411  0.176988
    C   C99   0.000000  0.500000  0.725589  0.177028
    C   C100  0.500000  0.000000  0.725589  0.177023
    C   C101  0.500000  0.000000  0.774411  0.177033
    C   C102  0.000000  0.500000  0.774411  0.177032
    C   C103  0.500000  0.000000  0.225589  0.177017
    C   C104  0.000000  0.500000  0.225589  0.177018
    O   O33   0.480593  0.411539  0.536148  -0.637785
    O   O34   0.411539  0.519407  0.536148  -0.637777
    O   O35   0.519406  0.588461  0.536148  -0.637772
    O   O36   0.588461  0.480594  0.536148  -0.637774
    O   O37   0.480593  0.588461  0.463852  -0.637792
    O   O38   0.411539  0.480593  0.463852  -0.637787
    O   O39   0.519406  0.411539  0.463852  -0.637788
    O   O40   0.588461  0.519407  0.463852  -0.637791
    O   O41   0.980593  0.911539  0.036148  -0.637773
    O   O42   0.911539  0.019407  0.036148  -0.637765
    O   O43   0.019406  0.088461  0.036148  -0.637769
    O   O44   0.088461  0.980593  0.036148  -0.637768
    O   O45   0.980593  0.088461  0.963852  -0.637790
    O   O46   0.911539  0.980593  0.963852  -0.637781
    O   O47   0.019406  0.911539  0.963852  -0.637785
    O   O48   0.088461  0.019407  0.963852  -0.637785
    C   C105  0.500000  0.382479  0.500000  0.808174
    C   C106  0.382479  0.500000  0.500000  0.808179
    C   C107  0.500000  0.617521  0.500000  0.808175
    C   C108  0.617521  0.500000  0.500000  0.808159
    C   C109  0.000000  0.882479  0.000000  0.808182
    C   C110  0.882479  0.000000  0.000000  0.808179
    C   C111  0.000000  0.117521  0.000000  0.808166
    C   C112  0.117521  0.000000  0.000000  0.808144
    C   C113  0.314572  0.500000  0.500000  -0.141799
    C   C114  0.500000  0.685428  0.500000  -0.141795
    C   C115  0.685428  0.500000  0.500000  -0.141777
    C   C116  0.500000  0.314572  0.500000  -0.141787
    C   C117  0.814572  0.000000  0.000000  -0.141812
    C   C118  0.000000  0.185428  0.000000  -0.141787
    C   C119  0.185428  0.000000  0.000000  -0.141772
    C   C120  0.000000  0.814572  0.000000  -0.141801
    Cu  Cu9   0.500000  0.500000  0.543054  0.991120
    Cu  Cu10  0.500000  0.500000  0.456946  0.991054
    Cu  Cu11  0.000000  0.000000  0.043054  0.991092
    Cu  Cu12  0.000000  0.000000  0.956946  0.991051
    H   H33   0.307419  0.590513  0.529109  0.107680
    H   H34   0.590513  0.692581  0.529109  0.107680
    H   H35   0.692581  0.409487  0.529109  0.107679
    H   H36   0.409487  0.307419  0.529109  0.107681
    H   H37   0.307419  0.409487  0.470891  0.107677
    H   H38   0.590513  0.307419  0.470891  0.107678
    H   H39   0.692581  0.590513  0.470891  0.107680
    H   H40   0.409487  0.692581  0.470891  0.107676
    H   H41   0.807419  0.090513  0.029109  0.107680
    H   H42   0.090513  0.192581  0.029109  0.107680
    H   H43   0.192581  0.909487  0.029109  0.107681
    H   H44   0.909487  0.807419  0.029109  0.107678
    H   H45   0.807419  0.909487  0.970891  0.107678
    H   H46   0.090513  0.807419  0.970891  0.107677
    H   H47   0.192581  0.090513  0.970891  0.107679
    H   H48   0.909487  0.192581  0.970891  0.107677
    C   C121  0.059061  0.601168  0.365225  0.869654
    O   O49   0.092598  0.591418  0.397085  -0.579539
    N   N1    0.056593  0.662219  0.346665  -0.985214
    H   H49   0.040238  0.692199  0.371300  0.365983
    H   H50   0.102140  0.675276  0.338884  0.363536
    C   C122  0.601168  0.940939  0.365225  0.869661
    O   O50   0.591418  0.907402  0.397085  -0.579539
    N   N2    0.662219  0.943407  0.346665  -0.985216
    H   H51   0.692199  0.959762  0.371300  0.365983
    H   H52   0.675276  0.897860  0.338884  0.363534
    C   C123  0.940939  0.398832  0.365225  0.869653
    O   O51   0.907402  0.408582  0.397085  -0.579537
    N   N3    0.943407  0.337781  0.346665  -0.985207
    H   H53   0.959762  0.307801  0.371300  0.365980
    H   H54   0.897860  0.324724  0.338884  0.363533
    C   C124  0.398832  0.059061  0.365225  0.869657
    O   O52   0.408582  0.092598  0.397085  -0.579539
    N   N4    0.337781  0.056593  0.346665  -0.985210
    H   H55   0.307801  0.040238  0.371300  0.365981
    H   H56   0.324724  0.102140  0.338884  0.363534
    C   C125  0.059061  0.398832  0.634775  0.869649
    O   O53   0.092598  0.408582  0.602915  -0.579539
    N   N5    0.056593  0.337781  0.653335  -0.985197
    H   H57   0.040238  0.307801  0.628699  0.365972
    H   H58   0.102140  0.324724  0.661116  0.363535
    C   C126  0.601168  0.059061  0.634775  0.869640
    O   O54   0.591418  0.092598  0.602915  -0.579539
    N   N6    0.662219  0.056593  0.653335  -0.985202
    H   H59   0.692199  0.040238  0.628699  0.365975
    H   H60   0.675276  0.102140  0.661116  0.363536
    C   C127  0.940939  0.601168  0.634775  0.869638
    O   O55   0.907402  0.591418  0.602915  -0.579534
    N   N7    0.943407  0.662219  0.653335  -0.985200
    H   H61   0.959762  0.692199  0.628699  0.365976
    H   H62   0.897860  0.675276  0.661116  0.363534
    C   C128  0.398832  0.940939  0.634775  0.869645
    O   O56   0.408582  0.907402  0.602915  -0.579535
    N   N8    0.337781  0.943407  0.653335  -0.985208
    H   H63   0.307801  0.959762  0.628700  0.365981
    H   H64   0.324724  0.897860  0.661116  0.363534
    C   C129  0.559061  0.101168  0.865225  0.869675
    O   O57   0.592598  0.091418  0.897085  -0.579545
    N   N9    0.556593  0.162219  0.846665  -0.985214
    H   H65   0.540238  0.192199  0.871300  0.365981
    H   H66   0.602140  0.175276  0.838884  0.363534
    C   C130  0.101168  0.440939  0.865225  0.869652
    O   O58   0.091418  0.407402  0.897085  -0.579536
    N   N10   0.162219  0.443407  0.846665  -0.985214
    H   H67   0.192199  0.459762  0.871300  0.365984
    H   H68   0.175276  0.397860  0.838884  0.363534
    C   C131  0.440939  0.898832  0.865225  0.869687
    O   O59   0.407402  0.908582  0.897085  -0.579548
    N   N11   0.443407  0.837781  0.846665  -0.985210
    H   H69   0.459762  0.807801  0.871300  0.365980
    H   H70   0.397860  0.824724  0.838884  0.363532
    C   C132  0.898832  0.559061  0.865225  0.869664
    O   O60   0.908582  0.592598  0.897085  -0.579540
    N   N12   0.837781  0.556593  0.846665  -0.985212
    H   H71   0.807801  0.540238  0.871300  0.365979
    H   H72   0.824724  0.602140  0.838884  0.363536
    C   C133  0.559061  0.898832  0.134775  0.870002
    O   O61   0.592598  0.908582  0.102915  -0.579661
    N   N13   0.556593  0.837781  0.153335  -0.985218
    H   H73   0.540238  0.807801  0.128699  0.365931
    H   H74   0.602139  0.824724  0.161116  0.363539
    C   C134  0.101168  0.559061  0.134775  0.869654
    O   O62   0.091418  0.592598  0.102915  -0.579538
    N   N14   0.162219  0.556593  0.153335  -0.985214
    H   H75   0.192199  0.540238  0.128700  0.365983
    H   H76   0.175276  0.602140  0.161116  0.363536
    C   C135  0.440939  0.101168  0.134775  0.869656
    O   O63   0.407402  0.091418  0.102915  -0.579538
    N   N15   0.443407  0.162219  0.153335  -0.985194
    H   H77   0.459761  0.192199  0.128699  0.365972
    H   H78   0.397860  0.175276  0.161116  0.363532
    C   C136  0.898832  0.440939  0.134775  0.869655
    O   O64   0.908582  0.407402  0.102915  -0.579537
    N   N16   0.837781  0.443407  0.153335  -0.985208
    H   H79   0.807801  0.459762  0.128700  0.365979
    H   H80   0.824724  0.397860  0.161116  0.363535
