# Generated by REPEAT Assigner based on pymatgen
data_DB0-m2_o1_o3_f0_nbo.sym.107_sqe
_audit_creation_date              2022-05-24
_audit_creation_method            REPEAT_Assigner
_cell_length_a                    21.522018
_cell_length_b                    21.522017
_cell_length_c                    38.408965
_cell_angle_alpha                 90.000000
_cell_angle_beta                  90.000000
_cell_angle_gamma                 90.000000
_cell_volume                      17790.926160
_symmetry_space_group_name_H-M    P1
_symmetry_Int_Tables_number       1
loop_
    _symmetry_equiv_pos_site_id
    _symmetry_equiv_pos_as_xyz
    1  x,y,z
loop_
    _atom_site_type_symbol
    _atom_site_label
    _atom_site_fract_x
    _atom_site_fract_y
    _atom_site_fract_z
    _atom_type_partial_charge
    C   C1    0.617654  0.000000  0.500000  0.769568
    C   C2    0.000000  0.500000  0.565887  0.797668
    C   C3    0.449136  0.781887  0.987615  -0.227715
    C   C4    0.218113  0.550863  0.012385  -0.227755
    C   C5    0.550863  0.781887  0.012385  -0.227732
    C   C6    0.781887  0.449137  0.012385  -0.227297
    C   C7    0.449137  0.218113  0.012385  -0.227584
    C   C8    0.782153  0.949679  0.486827  0.371923
    C   C9    0.050321  0.782153  0.486827  0.371978
    C   C10   0.217847  0.050321  0.486827  0.371624
    C   C11   0.949679  0.217847  0.486827  0.371713
    C   C12   0.782153  0.050321  0.513173  0.371193
    C   C13   0.500000  0.000000  0.434113  0.796862
    C   C14   0.050321  0.217847  0.513173  0.371785
    C   C15   0.217847  0.949679  0.513173  0.372302
    C   C16   0.949679  0.782153  0.513173  0.371727
    C   C17   0.282153  0.449679  0.986827  0.371417
    C   C18   0.550321  0.282153  0.986827  0.371835
    C   C19   0.717847  0.550321  0.986827  0.371937
    C   C20   0.449679  0.717847  0.986827  0.372151
    C   C21   0.282153  0.550321  0.013173  0.371384
    C   C22   0.550321  0.717847  0.013173  0.372193
    C   C23   0.717847  0.449679  0.013173  0.371696
    C   C24   0.000000  0.500000  0.434113  0.797482
    C   C25   0.449679  0.282153  0.013173  0.371663
    C   C26   0.814406  0.000000  0.500000  -0.225462
    C   C27   0.000000  0.814406  0.500000  -0.225789
    C   C28   0.185594  0.000000  0.500000  -0.225794
    C   C29   0.000000  0.185594  0.500000  -0.225811
    C   C30   0.314406  0.500000  0.000000  -0.225367
    C   C31   0.500000  0.314406  0.000000  -0.225488
    C   C32   0.685594  0.500000  0.000000  -0.225708
    C   C33   0.500000  0.685594  0.000000  -0.225835
    C   C34   0.685756  0.000000  0.500000  -0.097355
    C   C35   0.000000  0.500000  0.065887  0.797507
    C   C36   0.000000  0.685756  0.500000  -0.097787
    C   C37   0.314244  0.000000  0.500000  -0.097687
    C   C38   0.000000  0.314244  0.500000  -0.098031
    C   C39   0.185756  0.500000  0.000000  -0.097385
    C   C40   0.500000  0.185756  0.000000  -0.097211
    C   C41   0.814244  0.500000  0.000000  -0.097725
    C   C42   0.500000  0.814244  0.000000  -0.097539
    C   C43   0.000000  0.117681  0.500000  0.496015
    C   C44   0.882319  0.000000  0.500000  0.496437
    C   C45   0.000000  0.882319  0.500000  0.496346
    C   C46   0.500000  0.000000  0.065887  0.796361
    C   C47   0.117681  0.000000  0.500000  0.496047
    C   C48   0.500000  0.617681  0.000000  0.496002
    C   C49   0.382319  0.500000  0.000000  0.496495
    C   C50   0.500000  0.382319  0.000000  0.496367
    C   C51   0.617681  0.500000  0.000000  0.496126
    C   C52   0.364817  0.050044  0.795637  0.752645
    C   C53   0.310059  0.088164  0.806097  -0.530330
    C   C54   0.949951  0.364819  0.795637  0.752717
    C   C55   0.911829  0.310063  0.806097  -0.529973
    C   C56   0.635183  0.949957  0.795637  0.752646
    C   C57   0.000000  0.500000  0.934113  0.797531
    C   C58   0.689941  0.911836  0.806097  -0.530412
    C   C59   0.050048  0.635181  0.795637  0.752701
    C   C60   0.088171  0.689938  0.806097  -0.529994
    C   C61   0.364820  0.949949  0.204363  0.752512
    C   C62   0.310064  0.911826  0.193903  -0.529753
    C   C63   0.949949  0.635180  0.204363  0.752645
    C   C64   0.911825  0.689936  0.193903  -0.529993
    C   C65   0.635180  0.050051  0.204363  0.752492
    C   C66   0.689936  0.088174  0.193903  -0.529770
    C   C67   0.050052  0.364820  0.204363  0.752621
    C   C68   0.500000  0.000000  0.934113  0.796338
    C   C69   0.088175  0.310064  0.193903  -0.529956
    C   C70   0.864818  0.550047  0.295637  0.752647
    C   C71   0.810061  0.588168  0.306097  -0.529893
    C   C72   0.449952  0.864819  0.295637  0.752519
    C   C73   0.411830  0.810062  0.306097  -0.529614
    C   C74   0.135182  0.449953  0.295637  0.752706
    C   C75   0.189939  0.411832  0.306097  -0.529923
    C   C76   0.550047  0.135181  0.295637  0.752501
    C   C77   0.588169  0.189938  0.306097  -0.529682
    C   C78   0.864819  0.449951  0.704363  0.752990
    C   C79   0.489950  0.945486  0.878297  -0.202346
    C   C80   0.810063  0.411828  0.693903  -0.529510
    C   C81   0.449946  0.135179  0.704363  0.752600
    C   C82   0.411821  0.189934  0.693903  -0.530046
    C   C83   0.135181  0.550050  0.704363  0.752948
    C   C84   0.189937  0.588172  0.693903  -0.529541
    C   C85   0.550055  0.864821  0.704363  0.752609
    C   C86   0.588180  0.810067  0.693903  -0.530030
    C   C87   0.832090  0.901036  0.440882  0.703586
    C   C88   0.853243  0.844402  0.421921  -0.518759
    C   C89   0.098963  0.832090  0.440881  0.703639
    C   C90   0.054513  0.489946  0.878297  -0.202269
    C   C91   0.155597  0.853243  0.421921  -0.518588
    C   C92   0.167910  0.098964  0.440882  0.703828
    C   C93   0.146757  0.155598  0.421921  -0.518545
    C   C94   0.901037  0.167910  0.440881  0.704243
    C   C95   0.844403  0.146757  0.421921  -0.518839
    C   C96   0.832090  0.098963  0.559118  0.703994
    C   C97   0.853243  0.155598  0.578079  -0.518595
    C   C98   0.098963  0.167910  0.559119  0.704129
    C   C99   0.155597  0.146757  0.578079  -0.518760
    C   C100  0.167910  0.901037  0.559119  0.704204
    C   C101  0.510050  0.054514  0.878297  -0.202390
    C   C102  0.146757  0.844403  0.578079  -0.518512
    C   C103  0.901037  0.832090  0.559119  0.704531
    C   C104  0.844403  0.853243  0.578079  -0.519144
    C   C105  0.332090  0.401037  0.940881  0.703806
    C   C106  0.353243  0.344403  0.921921  -0.518833
    C   C107  0.598964  0.332090  0.940882  0.703380
    C   C108  0.655598  0.353243  0.921921  -0.518403
    C   C109  0.667910  0.598963  0.940881  0.703652
    C   C110  0.646757  0.655597  0.921921  -0.518694
    C   C111  0.401036  0.667910  0.940881  0.704188
    C   C112  0.000000  0.617654  0.500000  0.770196
    C   C113  0.945487  0.510054  0.878297  -0.202275
    C   C114  0.344402  0.646757  0.921921  -0.518566
    C   C115  0.332090  0.598963  0.059119  0.703703
    C   C116  0.353243  0.655597  0.078079  -0.518819
    C   C117  0.598963  0.667910  0.059119  0.704134
    C   C118  0.655597  0.646757  0.078079  -0.518570
    C   C119  0.667910  0.401037  0.059119  0.704496
    C   C120  0.646757  0.344403  0.078079  -0.518961
    C   C121  0.401037  0.332090  0.059118  0.704293
    C   C122  0.344402  0.353243  0.078079  -0.518699
    C   C123  0.489945  0.054513  0.121703  -0.202153
    C   C124  0.054513  0.510056  0.121703  -0.202215
    C   C125  0.510055  0.945487  0.121703  -0.202160
    C   C126  0.945487  0.489944  0.121703  -0.202153
    C   C127  0.989948  0.445486  0.378297  -0.202182
    C   C128  0.554513  0.989947  0.378297  -0.202141
    C   C129  0.010053  0.554514  0.378297  -0.202246
    C   C130  0.445486  0.010053  0.378297  -0.202109
    C   C131  0.989945  0.554513  0.621703  -0.202335
    C   C132  0.382346  0.000000  0.500000  0.769709
    C   C133  0.554513  0.010058  0.621703  -0.202077
    C   C134  0.010055  0.445487  0.621703  -0.202358
    C   C135  0.445488  0.989942  0.621703  -0.202091
    C   C136  0.489369  0.945550  0.842427  -0.251216
    C   C137  0.054450  0.489366  0.842427  -0.251336
    C   C138  0.510631  0.054450  0.842427  -0.251205
    C   C139  0.945550  0.510634  0.842427  -0.251327
    C   C140  0.489364  0.054449  0.157573  -0.251312
    C   C141  0.054449  0.510636  0.157573  -0.251389
    C   C142  0.510635  0.945551  0.157573  -0.251284
    C   C143  0.000000  0.382346  0.500000  0.770207
    C   C144  0.945551  0.489364  0.157573  -0.251423
    C   C145  0.989367  0.445550  0.342427  -0.251367
    C   C146  0.554450  0.989367  0.342427  -0.251318
    C   C147  0.010633  0.554450  0.342427  -0.251320
    C   C148  0.445550  0.010633  0.342427  -0.251339
    C   C149  0.989365  0.554449  0.657573  -0.251263
    C   C150  0.554449  0.010638  0.657574  -0.251348
    C   C151  0.010635  0.445551  0.657573  -0.251241
    C   C152  0.445551  0.989362  0.657574  -0.251308
    C   C153  0.500000  0.000000  0.824301  0.671103
    C   C154  0.117654  0.500000  0.000000  0.770016
    C   C155  0.000000  0.500000  0.824301  0.671343
    C   C156  0.500000  0.000000  0.175699  0.671207
    C   C157  0.000000  0.500000  0.175699  0.671314
    C   C158  0.000000  0.500000  0.324301  0.671317
    C   C159  0.500000  0.000000  0.324301  0.671244
    C   C160  0.000000  0.500000  0.675699  0.671499
    C   C161  0.500000  0.000000  0.675699  0.671141
    C   C162  0.500000  0.000000  0.896212  0.030421
    C   C163  0.000000  0.500000  0.896212  0.029685
    C   C164  0.500000  0.000000  0.103788  0.030192
    C   C165  0.500000  0.117654  0.000000  0.769394
    C   C166  0.000000  0.500000  0.103788  0.029709
    C   C167  0.000000  0.500000  0.396212  0.029825
    C   C168  0.500000  0.000000  0.396212  0.030036
    C   C169  0.000000  0.500000  0.603788  0.029761
    C   C170  0.500000  0.000000  0.603788  0.029989
    C   C171  0.459959  0.038749  0.768014  0.335180
    C   C172  0.961249  0.459961  0.768014  0.335061
    C   C173  0.540041  0.961251  0.768014  0.335157
    C   C174  0.038751  0.540040  0.768014  0.335069
    C   C175  0.459961  0.961249  0.231986  0.335194
    C   C176  0.882346  0.500000  0.000000  0.770166
    C   C177  0.961248  0.540039  0.231986  0.335153
    C   C178  0.540039  0.038752  0.231986  0.335204
    C   C179  0.038752  0.459961  0.231986  0.335147
    C   C180  0.959960  0.538750  0.268014  0.335059
    C   C181  0.461249  0.959960  0.268014  0.335217
    C   C182  0.040040  0.461250  0.268014  0.335065
    C   C183  0.538750  0.040040  0.268014  0.335176
    C   C184  0.959961  0.461249  0.731986  0.335283
    C   C185  0.461247  0.040038  0.731986  0.335234
    C   C186  0.040039  0.538751  0.731986  0.335240
    C   C187  0.500000  0.882346  0.000000  0.769527
    C   C188  0.538753  0.959962  0.731986  0.335227
    C   C189  0.500000  0.000000  0.713926  -0.530944
    C   C190  0.000000  0.500000  0.713926  -0.531028
    C   C191  0.500000  0.000000  0.286075  -0.530930
    C   C192  0.000000  0.500000  0.286074  -0.530866
    C   C193  0.000000  0.500000  0.213926  -0.530941
    C   C194  0.500000  0.000000  0.213926  -0.530936
    C   C195  0.000000  0.500000  0.786075  -0.530925
    C   C196  0.500000  0.000000  0.786074  -0.530985
    C   C197  0.718113  0.949136  0.487615  -0.228132
    C   C198  0.500000  0.000000  0.565887  0.796769
    C   C199  0.050864  0.718113  0.487615  -0.227927
    C   C200  0.281887  0.050864  0.487615  -0.227515
    C   C201  0.949137  0.281887  0.487615  -0.227299
    C   C202  0.718113  0.050863  0.512385  -0.227419
    C   C203  0.050863  0.281887  0.512385  -0.227313
    C   C204  0.281887  0.949137  0.512385  -0.227700
    C   C205  0.949137  0.718113  0.512385  -0.227308
    C   C206  0.218113  0.449136  0.987615  -0.227779
    C   C207  0.550864  0.218113  0.987615  -0.228166
    C   C208  0.781887  0.550864  0.987615  -0.227902
    Cu  Cu1   0.500000  0.060639  0.500000  0.976410
    Cu  Cu2   0.000000  0.000000  0.533881  0.779876
    Cu  Cu3   0.500000  0.500000  0.966119  0.780223
    Cu  Cu4   0.500000  0.500000  0.033881  0.780029
    Cu  Cu5   0.939361  0.500000  0.500000  0.976177
    Cu  Cu6   0.500000  0.939361  0.500000  0.976333
    Cu  Cu7   0.060639  0.500000  0.500000  0.976135
    Cu  Cu8   0.000000  0.560639  0.000000  0.976113
    Cu  Cu9   0.439361  0.000000  0.000000  0.976418
    Cu  Cu10  0.000000  0.439361  0.000000  0.976160
    Cu  Cu11  0.560639  0.000000  0.000000  0.976361
    Cu  Cu12  0.000000  0.000000  0.466119  0.779976
    H   H1    0.481777  0.902791  0.892395  0.135343
    H   H2    0.597208  0.981772  0.392395  0.135257
    H   H3    0.771305  0.420502  0.712292  0.153020
    H   H4    0.376903  0.085408  0.721730  0.315308
    H   H5    0.361667  0.178186  0.694109  0.105047
    H   H6    0.425296  0.204544  0.667267  0.169825
    H   H7    0.420493  0.228692  0.712292  0.153381
    H   H8    0.085412  0.623094  0.721730  0.315269
    H   H9    0.178191  0.638327  0.694110  0.104744
    H   H10   0.204546  0.574697  0.667267  0.169441
    H   H11   0.228695  0.579498  0.712292  0.153028
    H   H12   0.623098  0.914593  0.721730  0.315315
    H   H13   0.018227  0.597209  0.392395  0.135184
    H   H14   0.638333  0.821815  0.694109  0.105048
    H   H15   0.574704  0.795456  0.667267  0.169820
    H   H16   0.579507  0.771308  0.712292  0.153369
    H   H17   0.794937  0.854853  0.480741  0.288584
    H   H18   0.853800  0.803678  0.439612  0.085073
    H   H19   0.900911  0.852219  0.411870  0.196117
    H   H20   0.821441  0.835155  0.399809  0.148068
    H   H21   0.145147  0.794937  0.480741  0.288560
    H   H22   0.196321  0.853800  0.439612  0.084978
    H   H23   0.147780  0.900911  0.411870  0.195944
    H   H24   0.402792  0.018228  0.392395  0.135248
    H   H25   0.164844  0.821441  0.399809  0.148003
    H   H26   0.205063  0.145147  0.480741  0.288840
    H   H27   0.146200  0.196322  0.439612  0.085031
    H   H28   0.099089  0.147780  0.411870  0.195998
    H   H29   0.178559  0.164845  0.399809  0.148007
    H   H30   0.854854  0.205063  0.480741  0.288866
    H   H31   0.803679  0.146200  0.439611  0.085067
    H   H32   0.852220  0.099089  0.411869  0.195962
    H   H33   0.835156  0.178559  0.399808  0.148025
    H   H34   0.794937  0.145146  0.519259  0.288881
    H   H35   0.981770  0.597208  0.607605  0.135171
    H   H36   0.853800  0.196321  0.560388  0.085057
    H   H37   0.900911  0.147780  0.588130  0.196012
    H   H38   0.821441  0.164845  0.600191  0.147983
    H   H39   0.145146  0.205063  0.519259  0.288849
    H   H40   0.196321  0.146200  0.560389  0.085047
    H   H41   0.147779  0.099089  0.588131  0.195958
    H   H42   0.164844  0.178559  0.600192  0.148035
    H   H43   0.205063  0.854854  0.519259  0.289114
    H   H44   0.146200  0.803679  0.560388  0.085004
    H   H45   0.099089  0.852220  0.588130  0.195974
    H   H46   0.597207  0.018237  0.607605  0.135240
    H   H47   0.178559  0.835156  0.600191  0.147985
    H   H48   0.854854  0.794937  0.519259  0.289097
    H   H49   0.803679  0.853800  0.560388  0.085068
    H   H50   0.852220  0.900911  0.588130  0.196075
    H   H51   0.835156  0.821441  0.600191  0.148132
    H   H52   0.294937  0.354854  0.980741  0.288510
    H   H53   0.353800  0.303679  0.939611  0.085025
    H   H54   0.400911  0.352220  0.911869  0.195998
    H   H55   0.321441  0.335156  0.899808  0.148064
    H   H56   0.645147  0.294937  0.980741  0.288473
    H   H57   0.018230  0.402792  0.607605  0.135173
    H   H58   0.696322  0.353800  0.939612  0.085037
    H   H59   0.647781  0.400911  0.911870  0.196020
    H   H60   0.664845  0.321441  0.899809  0.147979
    H   H61   0.705063  0.645146  0.980741  0.288477
    H   H62   0.646200  0.696321  0.939612  0.084983
    H   H63   0.599089  0.647780  0.911870  0.195971
    H   H64   0.678559  0.664844  0.899809  0.148056
    H   H65   0.354853  0.705063  0.980741  0.289008
    H   H66   0.303678  0.646200  0.939612  0.085050
    H   H67   0.352220  0.599089  0.911870  0.196005
    H   H68   0.402793  0.981764  0.607605  0.135233
    H   H69   0.335155  0.678559  0.899809  0.148005
    H   H70   0.294937  0.645146  0.019259  0.288551
    H   H71   0.353800  0.696321  0.060389  0.085049
    H   H72   0.400911  0.647779  0.088131  0.195997
    H   H73   0.321441  0.664844  0.100192  0.148055
    H   H74   0.645146  0.705063  0.019259  0.289050
    H   H75   0.696321  0.646200  0.060388  0.085028
    H   H76   0.647780  0.599089  0.088130  0.196017
    H   H77   0.664844  0.678559  0.100191  0.148001
    H   H78   0.705063  0.354854  0.019259  0.289081
    H   H79   0.480156  0.902815  0.828577  0.153874
    H   H80   0.646200  0.303679  0.060389  0.085033
    H   H81   0.599089  0.352220  0.088130  0.195972
    H   H82   0.678559  0.335156  0.100192  0.148076
    H   H83   0.354854  0.294937  0.019259  0.289082
    H   H84   0.303679  0.353800  0.060388  0.085054
    H   H85   0.352220  0.400911  0.088130  0.196037
    H   H86   0.335155  0.321441  0.100191  0.148013
    H   H87   0.097184  0.480150  0.828577  0.153711
    H   H88   0.519845  0.097185  0.828577  0.153879
    H   H89   0.097208  0.481771  0.892395  0.135175
    H   H90   0.902816  0.519850  0.828577  0.153706
    H   H91   0.480147  0.097183  0.171423  0.153836
    H   H92   0.097183  0.519854  0.171423  0.153736
    H   H93   0.519852  0.902817  0.171423  0.153830
    H   H94   0.902817  0.480146  0.171423  0.153736
    H   H95   0.980152  0.402816  0.328577  0.153734
    H   H96   0.597184  0.980151  0.328577  0.153818
    H   H97   0.019848  0.597184  0.328577  0.153729
    H   H98   0.402816  0.019849  0.328577  0.153821
    H   H99   0.980149  0.597184  0.671423  0.153700
    H   H100  0.518223  0.097209  0.892395  0.135359
    H   H101  0.597183  0.019857  0.671423  0.153860
    H   H102  0.019851  0.402816  0.671423  0.153704
    H   H103  0.402818  0.980143  0.671423  0.153846
    H   H104  0.693810  0.908880  0.477774  0.124763
    H   H105  0.091120  0.693810  0.477774  0.124629
    H   H106  0.306190  0.091120  0.477774  0.124652
    H   H107  0.908880  0.306190  0.477774  0.124495
    H   H108  0.693810  0.091120  0.522226  0.124652
    H   H109  0.091120  0.306190  0.522226  0.124512
    H   H110  0.306190  0.908880  0.522226  0.124701
    H   H111  0.902792  0.518229  0.892395  0.135173
    H   H112  0.908880  0.693810  0.522226  0.124538
    H   H113  0.193810  0.408880  0.977774  0.124659
    H   H114  0.591120  0.193810  0.977774  0.124820
    H   H115  0.806190  0.591120  0.977774  0.124664
    H   H116  0.408880  0.806190  0.977774  0.124744
    H   H117  0.193810  0.591120  0.022226  0.124628
    H   H118  0.591120  0.806190  0.022226  0.124727
    H   H119  0.806190  0.408880  0.022226  0.124556
    H   H120  0.408880  0.193810  0.022226  0.124716
    H   H121  0.414582  0.123091  0.778270  0.315294
    H   H122  0.481768  0.097208  0.107605  0.135305
    H   H123  0.321803  0.138319  0.805890  0.105133
    H   H124  0.295450  0.074688  0.832733  0.169809
    H   H125  0.271301  0.079488  0.787708  0.153521
    H   H126  0.876906  0.414587  0.778270  0.315188
    H   H127  0.861675  0.321808  0.805890  0.104858
    H   H128  0.925305  0.295453  0.832733  0.169653
    H   H129  0.920503  0.271304  0.787708  0.153279
    H   H130  0.585418  0.876910  0.778270  0.315281
    H   H131  0.678197  0.861681  0.805890  0.105155
    H   H132  0.704550  0.925313  0.832733  0.169832
    H   H133  0.097207  0.518233  0.107605  0.135181
    H   H134  0.728699  0.920512  0.787708  0.153553
    H   H135  0.123094  0.585413  0.778270  0.315217
    H   H136  0.138325  0.678192  0.805890  0.104866
    H   H137  0.074695  0.704547  0.832733  0.169662
    H   H138  0.079496  0.728696  0.787708  0.153286
    H   H139  0.414589  0.876905  0.221730  0.315263
    H   H140  0.321810  0.861672  0.194110  0.104928
    H   H141  0.295454  0.925302  0.167267  0.169662
    H   H142  0.271305  0.920500  0.212292  0.153343
    H   H143  0.876905  0.585410  0.221730  0.315228
    H   H144  0.518232  0.902792  0.107605  0.135304
    H   H145  0.861671  0.678189  0.194110  0.104926
    H   H146  0.925301  0.704545  0.167267  0.169694
    H   H147  0.920498  0.728694  0.212292  0.153333
    H   H148  0.585411  0.123095  0.221730  0.315268
    H   H149  0.678189  0.138328  0.194110  0.104935
    H   H150  0.704546  0.074698  0.167267  0.169670
    H   H151  0.728694  0.079500  0.212292  0.153351
    H   H152  0.123096  0.414589  0.221730  0.315230
    H   H153  0.138329  0.321811  0.194110  0.104915
    H   H154  0.074699  0.295455  0.167267  0.169689
    H   H155  0.902793  0.481767  0.107605  0.135159
    H   H156  0.079502  0.271306  0.212292  0.153321
    H   H157  0.914585  0.623092  0.278270  0.315224
    H   H158  0.821806  0.638323  0.305890  0.104913
    H   H159  0.795452  0.574692  0.332733  0.169673
    H   H160  0.771303  0.579493  0.287708  0.153268
    H   H161  0.376907  0.914586  0.278270  0.315305
    H   H162  0.361676  0.821807  0.305890  0.104915
    H   H163  0.425307  0.795452  0.332733  0.169679
    H   H164  0.420505  0.771304  0.287708  0.153241
    H   H165  0.085415  0.376908  0.278270  0.315218
    H   H166  0.981773  0.402791  0.392395  0.135161
    H   H167  0.178194  0.361677  0.305890  0.104917
    H   H168  0.204548  0.425308  0.332733  0.169671
    H   H169  0.228697  0.420507  0.287708  0.153266
    H   H170  0.623093  0.085414  0.278270  0.315301
    H   H171  0.638324  0.178193  0.305890  0.104933
    H   H172  0.574693  0.204548  0.332733  0.169700
    H   H173  0.579495  0.228696  0.287708  0.153265
    H   H174  0.914588  0.376906  0.721730  0.315264
    H   H175  0.821809  0.361673  0.694110  0.104740
    H   H176  0.795453  0.425304  0.667267  0.169424
    N   N1    0.418630  0.077746  0.786421  -0.634271
    N   N2    0.422252  0.918632  0.286421  -0.634232
    N   N3    0.081369  0.422252  0.286421  -0.634198
    N   N4    0.577748  0.081368  0.286421  -0.634214
    N   N5    0.918633  0.422251  0.713579  -0.634536
    N   N6    0.422248  0.081364  0.713579  -0.634277
    N   N7    0.081367  0.577750  0.713579  -0.634494
    N   N8    0.577753  0.918636  0.713579  -0.634269
    N   N9    0.814331  0.897063  0.474496  -0.517467
    N   N10   0.102937  0.814331  0.474496  -0.517497
    N   N11   0.185669  0.102937  0.474496  -0.518136
    N   N12   0.922251  0.418633  0.786421  -0.634219
    N   N13   0.897063  0.185669  0.474496  -0.518470
    N   N14   0.814331  0.102937  0.525504  -0.518201
    N   N15   0.102936  0.185669  0.525504  -0.518468
    N   N16   0.185669  0.897063  0.525504  -0.519232
    N   N17   0.897063  0.814331  0.525504  -0.519142
    N   N18   0.314331  0.397063  0.974496  -0.517409
    N   N19   0.602937  0.314331  0.974496  -0.517262
    N   N20   0.685669  0.602937  0.974496  -0.517421
    N   N21   0.397063  0.685669  0.974496  -0.519042
    N   N22   0.314331  0.602937  0.025504  -0.517367
    N   N23   0.581370  0.922254  0.786421  -0.634253
    N   N24   0.602937  0.685669  0.025504  -0.519013
    N   N25   0.685669  0.397063  0.025504  -0.519116
    N   N26   0.397063  0.314331  0.025504  -0.518996
    N   N27   0.077749  0.581367  0.786421  -0.634244
    N   N28   0.418634  0.922250  0.213579  -0.634229
    N   N29   0.922249  0.581366  0.213579  -0.634211
    N   N30   0.581366  0.077750  0.213579  -0.634215
    N   N31   0.077751  0.418634  0.213579  -0.634203
    N   N32   0.918632  0.577748  0.286421  -0.634192
    O   O1    0.588461  0.051096  0.509912  -0.585011
    O   O2    0.448904  0.088461  0.009912  -0.584901
    O   O3    0.911539  0.448904  0.009912  -0.585273
    O   O4    0.551096  0.911539  0.009912  -0.584848
    O   O5    0.088461  0.448904  0.990088  -0.585220
    O   O6    0.448904  0.911539  0.990088  -0.584868
    O   O7    0.911539  0.551096  0.990088  -0.585171
    O   O8    0.551096  0.088461  0.990088  -0.584797
    O   O9    0.482293  0.051154  0.549676  -0.667006
    O   O10   0.948846  0.482293  0.549676  -0.667500
    O   O11   0.517707  0.948846  0.549676  -0.666976
    O   O12   0.948904  0.588461  0.509912  -0.585246
    O   O13   0.051154  0.517707  0.549676  -0.667498
    O   O14   0.482293  0.948846  0.450324  -0.667058
    O   O15   0.948846  0.517707  0.450324  -0.667495
    O   O16   0.517707  0.051154  0.450324  -0.667070
    O   O17   0.051154  0.482293  0.450324  -0.667494
    O   O18   0.982293  0.551154  0.049676  -0.667549
    O   O19   0.448846  0.982293  0.049676  -0.666760
    O   O20   0.017707  0.448846  0.049676  -0.667546
    O   O21   0.551154  0.017707  0.049676  -0.666755
    O   O22   0.982293  0.448846  0.950324  -0.667494
    O   O23   0.411539  0.948904  0.509912  -0.584957
    O   O24   0.448846  0.017707  0.950324  -0.666758
    O   O25   0.017707  0.551154  0.950324  -0.667491
    O   O26   0.551154  0.982293  0.950324  -0.666751
    O   O27   0.018097  0.088618  0.471450  -0.392867
    O   O28   0.911382  0.018097  0.471450  -0.393057
    O   O29   0.981903  0.911382  0.471450  -0.393136
    O   O30   0.088618  0.981903  0.471450  -0.392876
    O   O31   0.018098  0.911382  0.528550  -0.392949
    O   O32   0.911382  0.981902  0.528550  -0.393038
    O   O33   0.981902  0.088618  0.528550  -0.392891
    O   O34   0.051096  0.411539  0.509912  -0.585186
    O   O35   0.088618  0.018098  0.528550  -0.392789
    O   O36   0.518097  0.588618  0.971450  -0.392889
    O   O37   0.411382  0.518097  0.971450  -0.393236
    O   O38   0.481903  0.411382  0.971450  -0.393194
    O   O39   0.588618  0.481903  0.971450  -0.393131
    O   O40   0.518098  0.411382  0.028550  -0.392988
    O   O41   0.411382  0.481902  0.028550  -0.393273
    O   O42   0.481902  0.588618  0.028550  -0.392882
    O   O43   0.588618  0.518098  0.028550  -0.392967
    O   O44   0.360523  0.993562  0.795211  -0.583192
    O   O45   0.588461  0.948904  0.490088  -0.584905
    O   O46   0.006433  0.360522  0.795211  -0.583525
    O   O47   0.639478  0.006438  0.795211  -0.583203
    O   O48   0.993567  0.639478  0.795211  -0.583493
    O   O49   0.360522  0.006431  0.204790  -0.583230
    O   O50   0.006430  0.639478  0.204789  -0.583336
    O   O51   0.639478  0.993569  0.204789  -0.583226
    O   O52   0.993570  0.360522  0.204789  -0.583336
    O   O53   0.860523  0.493565  0.295211  -0.583399
    O   O54   0.506434  0.860522  0.295211  -0.583207
    O   O55   0.139478  0.506435  0.295211  -0.583448
    O   O56   0.948904  0.411539  0.490088  -0.585176
    O   O57   0.493566  0.139478  0.295211  -0.583199
    O   O58   0.860522  0.506432  0.704789  -0.583759
    O   O59   0.506427  0.139478  0.704790  -0.583206
    O   O60   0.139478  0.493568  0.704789  -0.583745
    O   O61   0.493574  0.860522  0.704789  -0.583212
    O   O62   0.830662  0.950830  0.425771  -0.565606
    O   O63   0.049170  0.830662  0.425771  -0.565593
    O   O64   0.169338  0.049170  0.425771  -0.565603
    O   O65   0.950831  0.169338  0.425771  -0.565659
    O   O66   0.830662  0.049170  0.574229  -0.565624
    O   O67   0.411539  0.051096  0.490088  -0.585007
    O   O68   0.049169  0.169338  0.574229  -0.565595
    O   O69   0.169338  0.950831  0.574229  -0.565665
    O   O70   0.950831  0.830662  0.574229  -0.565654
    O   O71   0.330662  0.450831  0.925771  -0.565530
    O   O72   0.549170  0.330662  0.925771  -0.565482
    O   O73   0.669338  0.549170  0.925771  -0.565517
    O   O74   0.450830  0.669338  0.925771  -0.565594
    O   O75   0.330662  0.549169  0.074229  -0.565518
    O   O76   0.549169  0.669338  0.074229  -0.565617
    O   O77   0.669338  0.450831  0.074229  -0.565649
    O   O78   0.051096  0.588461  0.490088  -0.585129
    O   O79   0.450830  0.330662  0.074229  -0.565640
    O   O80   0.088461  0.551096  0.009912  -0.585200
