# Generated by REPEAT Assigner based on pymatgen
data_DB0-m2_o1_o2_f0_pcu.sym.24_sqe
_audit_creation_date              2022-05-24
_audit_creation_method            REPEAT_Assigner
_cell_length_a                    10.980745
_cell_length_b                    9.495358
_cell_length_c                    15.118883
_cell_angle_alpha                 90.000000
_cell_angle_beta                  90.006029
_cell_angle_gamma                 90.000000
_cell_volume                      1576.387005
_symmetry_space_group_name_H-M    P1
_symmetry_Int_Tables_number       1
loop_
    _symmetry_equiv_pos_site_id
    _symmetry_equiv_pos_as_xyz
    1  x,y,z
loop_
    _atom_site_type_symbol
    _atom_site_label
    _atom_site_fract_x
    _atom_site_fract_y
    _atom_site_fract_z
    _atom_type_partial_charge
    O   O1   0.324646  0.626846  0.498612  -0.511066
    O   O2   0.674874  0.377061  0.505343  -0.443495
    O   O3   0.678435  0.617772  0.507468  -0.434568
    O   O4   0.321162  0.385760  0.494620  -0.355043
    N   N1   0.506004  0.854329  0.497082  -0.180075
    N   N2   0.494164  0.149318  0.505875  -0.059696
    C   C1   0.264300  0.507544  0.497289  0.508788
    C   C2   0.735382  0.496111  0.505220  0.494494
    O   O5   0.505213  0.617568  0.371640  -0.587292
    O   O6   0.493175  0.385859  0.631364  -0.564196
    O   O7   0.490690  0.627206  0.628415  -0.653327
    O   O8   0.510402  0.376325  0.374689  -0.550400
    C   C3   0.510301  0.495791  0.331439  0.686879
    C   C4   0.489588  0.507496  0.671416  0.773923
    Cu  Cu1  0.501722  0.642804  0.500072  0.840590
    Cu  Cu2  0.497518  0.360883  0.503288  0.638174
    C   C5   0.425460  0.075852  0.447567  0.072108
    C   C6   0.573985  0.927884  0.556265  0.085227
    C   C7   0.564446  0.073802  0.562949  -0.016268
    C   C8   0.434477  0.930041  0.440808  0.093824
    C   C9   0.066780  0.394533  0.539267  0.150381
    C   C10  0.932494  0.609335  0.462798  0.055559
    C   C11  0.940562  0.385565  0.535018  -0.256307
    C   C12  0.058845  0.616591  0.465103  -0.191145
    C   C13  0.491626  0.620389  0.097717  -0.174395
    C   C14  0.458963  0.385764  0.905336  -0.169578
    C   C15  0.537131  0.619868  0.905836  -0.190166
    C   C16  0.526690  0.372865  0.095719  -0.198196
    H   H1   0.473055  0.719259  0.065280  0.129173
    H   H2   0.427174  0.292386  0.939031  0.119767
    H   H3   0.575215  0.710280  0.939078  0.129133
    H   H4   0.543772  0.275430  0.061157  0.136825
    C   C17  0.495600  0.618785  0.188690  -0.055860
    C   C18  0.454114  0.388963  0.814179  -0.059894
    C   C19  0.528364  0.624710  0.815025  -0.030988
    C   C20  0.526647  0.371004  0.187202  -0.004646
    H   H5   0.484437  0.716691  0.223609  0.124244
    H   H6   0.421301  0.297115  0.779218  0.133049
    H   H7   0.557268  0.718974  0.781301  0.105554
    H   H8   0.540427  0.272160  0.221159  0.077997
    C   C21  0.511512  0.494533  0.234282  -0.106201
    C   C22  0.488861  0.508248  0.768476  -0.154259
    C   C23  0.507573  0.497663  0.049930  0.102937
    C   C24  0.502011  0.500598  0.952257  0.130685
    C   C25  0.871146  0.494996  0.499479  -0.019735
    C   C26  0.127976  0.508450  0.502271  -0.090731
    C   C27  0.326342  0.144278  0.398180  0.335634
    H   H9   0.342640  0.232366  0.355124  0.031829
    O   O9   0.223070  0.097317  0.402916  -0.325719
    C   C28  0.673173  0.860003  0.606716  0.459059
    H   H10  0.661879  0.762749  0.641608  -0.004991
    O   O10  0.773528  0.914924  0.609328  -0.397840
    C   C29  0.619735  0.140277  0.641056  0.558355
    H   H11  0.664254  0.240603  0.637679  -0.024137
    O   O11  0.611476  0.083697  0.713206  -0.469442
    C   C30  0.375437  0.864523  0.363729  0.420007
    H   H12  0.336799  0.761304  0.367099  0.050249
    O   O12  0.374854  0.924159  0.292179  -0.411953
    C   C31  0.134059  0.286329  0.589275  0.287359
    H   H13  0.206353  0.317841  0.633938  -0.015506
    O   O13  0.114103  0.161091  0.578251  -0.360064
    C   C32  0.864762  0.720773  0.416016  0.352307
    H   H14  0.792716  0.692453  0.370268  0.007703
    O   O14  0.883841  0.844958  0.431527  -0.349328
    C   C33  0.882476  0.260266  0.571795  0.595102
    H   H15  0.888762  0.238518  0.642051  -0.029724
    O   O15  0.841532  0.170870  0.522121  -0.370446
    C   C34  0.117190  0.738335  0.424052  0.670825
    H   H16  0.168336  0.811300  0.464778  -0.071984
    O   O16  0.101799  0.763339  0.345680  -0.469082
