# Generated by REPEAT Assigner based on pymatgen
data_DB0-m2_o1_o3_f0_nbo.sym.13
_audit_creation_date              2022-05-24
_audit_creation_method            REPEAT_Assigner
_cell_length_a                    21.458110
_cell_length_b                    21.458112
_cell_length_c                    38.908934
_cell_angle_alpha                 90.000000
_cell_angle_beta                  90.000000
_cell_angle_gamma                 90.000000
_cell_volume                      17915.638674
_symmetry_space_group_name_H-M    P1
_symmetry_Int_Tables_number       1
loop_
    _symmetry_equiv_pos_site_id
    _symmetry_equiv_pos_as_xyz
    1  x,y,z
loop_
    _atom_site_type_symbol
    _atom_site_label
    _atom_site_fract_x
    _atom_site_fract_y
    _atom_site_fract_z
    _atom_type_partial_charge
    O   O1    0.588803  0.051416  0.490430  -0.558975
    O   O2    0.948585  0.588803  0.490430  -0.558954
    O   O3    0.411197  0.948584  0.490430  -0.558960
    O   O4    0.051416  0.411197  0.490430  -0.558989
    O   O5    0.588803  0.948584  0.509570  -0.558976
    O   O6    0.948585  0.411197  0.509570  -0.558965
    O   O7    0.411197  0.051416  0.509570  -0.558964
    O   O8    0.051416  0.588803  0.509570  -0.558969
    O   O9    0.088803  0.551415  0.990429  -0.559004
    O   O10   0.448585  0.088803  0.990430  -0.558987
    O   O11   0.911197  0.448585  0.990429  -0.559006
    O   O12   0.551415  0.911198  0.990430  -0.558979
    O   O13   0.088802  0.448585  0.009570  -0.559001
    O   O14   0.448585  0.911198  0.009570  -0.558992
    O   O15   0.911197  0.551416  0.009570  -0.558993
    O   O16   0.551415  0.088803  0.009570  -0.558987
    C   C1    0.617879  0.000000  0.500000  0.661174
    C   C2    0.000000  0.617879  0.500000  0.661161
    C   C3    0.382121  0.000000  0.500000  0.661134
    C   C4    0.000000  0.382121  0.500000  0.661203
    C   C5    0.117879  0.500000  0.000000  0.661075
    C   C6    0.500000  0.117879  0.000000  0.661006
    C   C7    0.882121  0.500000  0.000000  0.661032
    C   C8    0.500000  0.882121  0.000000  0.661037
    O   O17   0.517678  0.051239  0.549046  -0.679284
    O   O18   0.948761  0.517678  0.549045  -0.679287
    O   O19   0.482322  0.948761  0.549046  -0.679274
    O   O20   0.051239  0.482322  0.549045  -0.679308
    O   O21   0.517678  0.948761  0.450954  -0.679268
    O   O22   0.948761  0.482322  0.450954  -0.679273
    O   O23   0.482322  0.051239  0.450954  -0.679265
    O   O24   0.051239  0.517678  0.450954  -0.679282
    O   O25   0.017678  0.551239  0.049045  -0.679247
    O   O26   0.448761  0.017678  0.049046  -0.679221
    O   O27   0.982322  0.448761  0.049045  -0.679266
    O   O28   0.551239  0.982322  0.049046  -0.679201
    O   O29   0.017678  0.448761  0.950954  -0.679248
    O   O30   0.448761  0.982322  0.950954  -0.679217
    O   O31   0.982322  0.551239  0.950954  -0.679260
    O   O32   0.551239  0.017678  0.950954  -0.679224
    C   C9    0.500000  0.000000  0.565231  0.861061
    C   C10   0.000000  0.500000  0.565230  0.861062
    C   C11   0.500000  0.000000  0.434770  0.861034
    C   C12   0.000000  0.500000  0.434769  0.860909
    C   C13   0.000000  0.500000  0.065231  0.861160
    C   C14   0.500000  0.000000  0.065231  0.861225
    C   C15   0.000000  0.500000  0.934769  0.861316
    C   C16   0.500000  0.000000  0.934769  0.861368
    Cu  Cu1   0.500000  0.060851  0.500000  0.976694
    Cu  Cu2   0.939149  0.500000  0.500000  0.976777
    Cu  Cu3   0.500000  0.939149  0.500000  0.976556
    Cu  Cu4   0.060851  0.500000  0.500000  0.976559
    Cu  Cu5   0.000000  0.560851  0.000000  0.976600
    Cu  Cu6   0.439149  0.000000  0.000000  0.976478
    Cu  Cu7   0.000000  0.439149  0.000000  0.976534
    Cu  Cu8   0.560851  0.000000  0.000000  0.976465
    C   C17   0.546258  0.968612  0.878660  0.068637
    C   C18   0.031393  0.546253  0.878659  0.068284
    C   C19   0.453742  0.031389  0.878660  0.068650
    C   C20   0.968607  0.453747  0.878659  0.068248
    C   C21   0.546258  0.031388  0.121340  0.068475
    C   C22   0.031395  0.453750  0.121340  0.068126
    C   C23   0.453742  0.968612  0.121340  0.068493
    C   C24   0.968605  0.546250  0.121340  0.068111
    C   C25   0.046235  0.468590  0.378660  0.067745
    C   C26   0.531421  0.046224  0.378660  0.068301
    C   C27   0.953765  0.531411  0.378660  0.067709
    C   C28   0.468579  0.953776  0.378660  0.068281
    C   C29   0.046231  0.531414  0.621340  0.067977
    C   C30   0.531420  0.953775  0.621340  0.068282
    C   C31   0.953769  0.468586  0.621340  0.068002
    C   C32   0.468580  0.046225  0.621340  0.068329
    C   C33   0.547705  0.972252  0.843243  -0.227658
    C   C34   0.027754  0.547701  0.843242  -0.227265
    C   C35   0.452295  0.027748  0.843243  -0.227672
    C   C36   0.972246  0.452299  0.843242  -0.227235
    C   C37   0.547706  0.027747  0.156757  -0.227582
    C   C38   0.027757  0.452301  0.156757  -0.226744
    C   C39   0.452294  0.972253  0.156757  -0.227594
    C   C40   0.972243  0.547699  0.156757  -0.226744
    C   C41   0.047684  0.472222  0.343242  -0.227070
    C   C42   0.527793  0.047674  0.343242  -0.228632
    C   C43   0.952316  0.527778  0.343242  -0.227051
    C   C44   0.472207  0.952326  0.343242  -0.228628
    C   C45   0.047681  0.527782  0.656757  -0.228092
    C   C46   0.527791  0.952325  0.656758  -0.228556
    C   C47   0.952319  0.472218  0.656757  -0.228100
    C   C48   0.472209  0.047675  0.656758  -0.228606
    H   H1    0.587446  0.951951  0.830680  0.135122
    H   H2    0.048065  0.587441  0.830687  0.135041
    H   H3    0.412554  0.048049  0.830680  0.135130
    H   H4    0.951935  0.412559  0.830687  0.135036
    H   H5    0.587446  0.048047  0.169321  0.135123
    H   H6    0.048075  0.412562  0.169309  0.134951
    H   H7    0.412554  0.951953  0.169321  0.135126
    H   H8    0.951925  0.587438  0.169309  0.134955
    H   H9    0.087420  0.451870  0.330711  0.135073
    H   H10   0.548169  0.087406  0.330723  0.135484
    H   H11   0.912580  0.548130  0.330711  0.135074
    H   H12   0.451831  0.912594  0.330723  0.135485
    H   H13   0.087416  0.548142  0.669285  0.135313
    H   H14   0.548165  0.912593  0.669278  0.135448
    H   H15   0.912585  0.451858  0.669285  0.135316
    H   H16   0.451835  0.087407  0.669278  0.135462
    C   C49   0.500000  0.000000  0.824753  0.045405
    C   C50   0.000000  0.500000  0.824749  0.045129
    C   C51   0.500000  0.000000  0.175247  0.045315
    C   C52   0.000000  0.500000  0.175253  0.044132
    C   C53   0.000000  0.500000  0.324737  0.044599
    C   C54   0.500000  0.000000  0.324731  0.047144
    C   C55   0.000000  0.500000  0.675264  0.046621
    C   C56   0.500000  0.000000  0.675268  0.047077
    C   C57   0.500000  0.000000  0.896965  -0.181925
    C   C58   0.000000  0.500000  0.896964  -0.181728
    C   C59   0.500000  0.000000  0.103035  -0.181621
    C   C60   0.000000  0.500000  0.103035  -0.181447
    C   C61   0.000000  0.500000  0.396965  -0.180857
    C   C62   0.500000  0.000000  0.396965  -0.181190
    C   C63   0.000000  0.500000  0.603035  -0.181202
    C   C64   0.500000  0.000000  0.603035  -0.181249
    C   C65   0.462131  0.040099  0.767729  -0.181017
    C   C66   0.959985  0.462041  0.767718  -0.180263
    C   C67   0.537869  0.959901  0.767729  -0.180995
    C   C68   0.040015  0.537959  0.767718  -0.180232
    C   C69   0.462143  0.959889  0.232269  -0.181321
    C   C70   0.960031  0.538009  0.232287  -0.179210
    C   C71   0.537857  0.040111  0.232269  -0.181339
    C   C72   0.039969  0.461991  0.232287  -0.179194
    C   C73   0.961743  0.539735  0.267682  -0.180075
    C   C74   0.460409  0.961592  0.267664  -0.178661
    C   C75   0.038257  0.460265  0.267682  -0.180067
    C   C76   0.539591  0.038408  0.267664  -0.178648
    C   C77   0.961694  0.460312  0.732323  -0.178986
    C   C78   0.460397  0.038396  0.732334  -0.178937
    C   C79   0.038306  0.539688  0.732323  -0.179003
    C   C80   0.539603  0.961604  0.732334  -0.178943
    H   H17   0.432749  0.074231  0.779881  0.127948
    H   H18   0.925918  0.432576  0.779862  0.127824
    H   H19   0.567251  0.925769  0.779881  0.127945
    H   H20   0.074082  0.567424  0.779862  0.127813
    H   H21   0.432773  0.925748  0.220117  0.128032
    H   H22   0.926001  0.567520  0.220147  0.127456
    H   H23   0.567227  0.074252  0.220117  0.128037
    H   H24   0.073999  0.432480  0.220147  0.127449
    H   H25   0.932000  0.573580  0.279801  0.127722
    H   H26   0.426679  0.931707  0.279770  0.127509
    H   H27   0.068000  0.426420  0.279801  0.127720
    H   H28   0.573321  0.068293  0.279770  0.127506
    H   H29   0.931905  0.426504  0.720208  0.127494
    H   H30   0.426657  0.068268  0.720227  0.127597
    H   H31   0.068095  0.573496  0.720208  0.127499
    H   H32   0.573343  0.931732  0.720227  0.127595
    C   C81   0.500000  0.000000  0.713711  0.142966
    C   C82   0.000000  0.500000  0.713703  0.143022
    C   C83   0.500000  0.000000  0.286288  0.142751
    C   C84   0.000000  0.500000  0.286301  0.144775
    C   C85   0.000000  0.500000  0.213678  0.144569
    C   C86   0.500000  0.000000  0.213665  0.146187
    C   C87   0.000000  0.500000  0.786326  0.144889
    C   C88   0.500000  0.000000  0.786334  0.145925
    C   C89   0.718026  0.948581  0.488260  -0.106025
    C   C90   0.051419  0.718026  0.488260  -0.105988
    C   C91   0.281975  0.051419  0.488260  -0.106039
    C   C92   0.948581  0.281975  0.488260  -0.105994
    C   C93   0.718026  0.051419  0.511740  -0.106013
    C   C94   0.051419  0.281975  0.511740  -0.105995
    C   C95   0.281975  0.948581  0.511740  -0.106030
    C   C96   0.948581  0.718025  0.511740  -0.105978
    C   C97   0.218026  0.448581  0.988261  -0.106174
    C   C98   0.551420  0.218026  0.988261  -0.106308
    C   C99   0.781974  0.551420  0.988261  -0.106176
    C   C100  0.448580  0.781975  0.988261  -0.106308
    C   C101  0.218025  0.551419  0.011739  -0.106123
    C   C102  0.551420  0.781974  0.011739  -0.106390
    C   C103  0.781974  0.448581  0.011739  -0.106134
    C   C104  0.448580  0.218026  0.011739  -0.106393
    H   H33   0.693082  0.908321  0.478802  0.112816
    H   H34   0.091680  0.693082  0.478803  0.112789
    H   H35   0.306918  0.091679  0.478802  0.112820
    H   H36   0.908321  0.306918  0.478803  0.112802
    H   H37   0.693082  0.091679  0.521198  0.112813
    H   H38   0.091680  0.306918  0.521197  0.112802
    H   H39   0.306918  0.908321  0.521198  0.112812
    H   H40   0.908321  0.693082  0.521197  0.112796
    H   H41   0.193082  0.408319  0.978804  0.112842
    H   H42   0.591681  0.193082  0.978805  0.112878
    H   H43   0.806918  0.591681  0.978804  0.112846
    H   H44   0.408319  0.806918  0.978805  0.112885
    H   H45   0.193082  0.591681  0.021196  0.112835
    H   H46   0.591681  0.806918  0.021195  0.112893
    H   H47   0.806918  0.408319  0.021196  0.112830
    H   H48   0.408319  0.193082  0.021195  0.112893
    C   C105  0.782238  0.949285  0.487368  -0.076412
    C   C106  0.050715  0.782238  0.487369  -0.076366
    C   C107  0.217762  0.050715  0.487368  -0.076415
    C   C108  0.949285  0.217762  0.487369  -0.076391
    C   C109  0.782238  0.050715  0.512632  -0.076413
    C   C110  0.050715  0.217762  0.512631  -0.076379
    C   C111  0.217762  0.949285  0.512632  -0.076392
    C   C112  0.949285  0.782238  0.512631  -0.076395
    C   C113  0.282238  0.449284  0.987369  -0.076227
    C   C114  0.550716  0.282238  0.987370  -0.076139
    C   C115  0.717762  0.550716  0.987369  -0.076237
    C   C116  0.449284  0.717762  0.987370  -0.076143
    C   C117  0.282238  0.550716  0.012631  -0.076279
    C   C118  0.550716  0.717762  0.012630  -0.075984
    C   C119  0.717762  0.449284  0.012631  -0.076266
    C   C120  0.449284  0.282238  0.012630  -0.075994
    H   H49   0.807247  0.909249  0.477666  0.111273
    H   H50   0.090752  0.807247  0.477667  0.111246
    H   H51   0.192753  0.090751  0.477666  0.111278
    H   H52   0.909248  0.192753  0.477667  0.111250
    H   H53   0.807247  0.090751  0.522334  0.111265
    H   H54   0.090752  0.192753  0.522333  0.111246
    H   H55   0.192753  0.909249  0.522334  0.111268
    H   H56   0.909248  0.807247  0.522333  0.111253
    H   H57   0.307247  0.409247  0.977668  0.111215
    H   H58   0.590753  0.307247  0.977669  0.111213
    H   H59   0.692753  0.590753  0.977668  0.111219
    H   H60   0.409247  0.692753  0.977669  0.111214
    H   H61   0.307247  0.590753  0.022332  0.111232
    H   H62   0.590753  0.692753  0.022331  0.111161
    H   H63   0.692753  0.409247  0.022332  0.111231
    H   H64   0.409247  0.307247  0.022331  0.111167
    C   C121  0.814401  0.000000  0.500000  -0.095454
    C   C122  0.000000  0.814401  0.500000  -0.095559
    C   C123  0.185600  0.000000  0.500000  -0.095498
    C   C124  0.000000  0.185599  0.500000  -0.095521
    C   C125  0.314401  0.500000  0.000000  -0.095634
    C   C126  0.500000  0.314401  0.000000  -0.095794
    C   C127  0.685599  0.500000  0.000000  -0.095643
    C   C128  0.500000  0.685599  0.000000  -0.095791
    C   C129  0.685839  0.000000  0.500000  0.011538
    C   C130  0.000000  0.685839  0.500000  0.011530
    C   C131  0.314161  0.000000  0.500000  0.011571
    C   C132  0.000000  0.314161  0.500000  0.011524
    C   C133  0.185839  0.500000  0.000000  0.011756
    C   C134  0.500000  0.185839  0.000000  0.011901
    C   C135  0.814161  0.500000  0.000000  0.011782
    C   C136  0.500000  0.814161  0.000000  0.011879
    O   O33   0.980395  0.088564  0.472035  -0.644876
    O   O34   0.911436  0.980395  0.472035  -0.644865
    O   O35   0.019605  0.911436  0.472035  -0.644866
    O   O36   0.088564  0.019605  0.472035  -0.644855
    O   O37   0.980395  0.911436  0.527966  -0.644876
    O   O38   0.911436  0.019605  0.527966  -0.644871
    O   O39   0.019605  0.088564  0.527966  -0.644885
    O   O40   0.088564  0.980395  0.527966  -0.644863
    O   O41   0.480395  0.588564  0.972035  -0.644828
    O   O42   0.411436  0.480395  0.972035  -0.644840
    O   O43   0.519605  0.411436  0.972035  -0.644838
    O   O44   0.588564  0.519605  0.972035  -0.644847
    O   O45   0.480395  0.411436  0.027966  -0.644856
    O   O46   0.411436  0.519605  0.027966  -0.644843
    O   O47   0.519605  0.588564  0.027966  -0.644847
    O   O48   0.588564  0.480395  0.027966  -0.644852
    C   C137  0.000000  0.117658  0.500000  0.814856
    C   C138  0.882342  0.000000  0.500000  0.814751
    C   C139  0.000000  0.882342  0.500000  0.814899
    C   C140  0.117658  0.000000  0.500000  0.814793
    C   C141  0.500000  0.617658  0.000000  0.814802
    C   C142  0.382342  0.500000  0.000000  0.814793
    C   C143  0.500000  0.382342  0.000000  0.814825
    C   C144  0.617658  0.500000  0.000000  0.814816
    Cu  Cu9   0.000000  0.000000  0.466690  1.000227
    Cu  Cu10  0.000000  0.000000  0.533310  1.000270
    Cu  Cu11  0.500000  0.500000  0.966690  1.000186
    Cu  Cu12  0.500000  0.500000  0.033310  1.000224
    C   C145  0.594673  0.927864  0.895250  0.100338
    C   C146  0.582617  0.860234  0.886028  -0.128706
    H   H65   0.533808  0.848112  0.892610  0.021501
    H   H66   0.590710  0.852085  0.858255  0.025802
    H   H67   0.614671  0.830124  0.900992  0.028754
    H   H68   0.641494  0.941628  0.885874  -0.005230
    H   H69   0.595403  0.930284  0.923496  0.005920
    C   C147  0.072145  0.594664  0.895250  0.100816
    C   C148  0.139775  0.582595  0.886034  -0.128634
    H   H70   0.151888  0.533786  0.892622  0.021453
    H   H71   0.147931  0.590678  0.858261  0.025784
    H   H72   0.169887  0.614649  0.900997  0.028668
    H   H73   0.058392  0.641486  0.885871  -0.005382
    H   H74   0.069718  0.595401  0.923496  0.005813
    C   C149  0.405327  0.072136  0.895250  0.100301
    C   C150  0.417383  0.139766  0.886028  -0.128667
    H   H75   0.466192  0.151888  0.892610  0.021491
    H   H76   0.409290  0.147915  0.858255  0.025792
    H   H77   0.385329  0.169877  0.900991  0.028750
    H   H78   0.358506  0.058372  0.885874  -0.005220
    H   H79   0.404597  0.069716  0.923496  0.005920
    C   C151  0.927855  0.405336  0.895250  0.100833
    C   C152  0.860225  0.417406  0.886034  -0.128643
    H   H80   0.848112  0.466214  0.892622  0.021460
    H   H81   0.852068  0.409322  0.858261  0.025786
    H   H82   0.830113  0.385351  0.900997  0.028666
    H   H83   0.941608  0.358514  0.885871  -0.005385
    H   H84   0.930282  0.404599  0.923496  0.005805
    C   C153  0.594674  0.072135  0.104750  0.100303
    C   C154  0.582620  0.139765  0.113973  -0.128695
    H   H85   0.533811  0.151889  0.107392  0.021495
    H   H86   0.590715  0.147913  0.141746  0.025802
    H   H87   0.614674  0.169875  0.099009  0.028757
    H   H88   0.641495  0.058370  0.114125  -0.005213
    H   H89   0.595404  0.069716  0.076504  0.005937
    C   C155  0.072150  0.405341  0.104750  0.100812
    C   C156  0.139780  0.417418  0.113962  -0.128712
    H   H90   0.151888  0.466226  0.107371  0.021441
    H   H91   0.147941  0.409341  0.141735  0.025876
    H   H92   0.169893  0.385364  0.099000  0.028690
    H   H93   0.058403  0.358518  0.114130  -0.005408
    H   H94   0.069718  0.404600  0.076504  0.005832
    C   C157  0.405326  0.927865  0.104750  0.100302
    C   C158  0.417380  0.860235  0.113973  -0.128722
    H   H95   0.466189  0.848112  0.107392  0.021500
    H   H96   0.409285  0.852088  0.141746  0.025809
    H   H97   0.385326  0.830125  0.099009  0.028765
    H   H98   0.358505  0.941630  0.114125  -0.005213
    H   H99   0.404596  0.930284  0.076504  0.005944
    C   C159  0.927850  0.594659  0.104750  0.100815
    C   C160  0.860220  0.582582  0.113962  -0.128701
    H   H100  0.848112  0.533774  0.107371  0.021439
    H   H101  0.852059  0.590659  0.141735  0.025870
    H   H102  0.830107  0.614636  0.099000  0.028689
    H   H103  0.941597  0.641482  0.114130  -0.005406
    H   H104  0.930282  0.595400  0.076504  0.005822
    C   C161  0.094632  0.427821  0.395251  0.101618
    C   C162  0.082513  0.360190  0.386058  -0.128761
    H   H105  0.033706  0.348110  0.392665  0.021508
    H   H106  0.090560  0.352006  0.358284  0.025794
    H   H107  0.114567  0.330073  0.401017  0.028649
    H   H108  0.141457  0.441537  0.385860  -0.005585
    H   H109  0.095392  0.430276  0.423496  0.005489
    C   C163  0.572198  0.094613  0.395253  0.101398
    C   C164  0.639830  0.082468  0.386071  -0.129142
    H   H110  0.651891  0.033660  0.392689  0.021672
    H   H111  0.648031  0.090495  0.358297  0.025886
    H   H112  0.669951  0.114521  0.401029  0.028766
    H   H113  0.558505  0.141440  0.385854  -0.005526
    H   H114  0.569728  0.095387  0.423497  0.005587
    C   C165  0.905369  0.572179  0.395251  0.101668
    C   C166  0.917487  0.639810  0.386058  -0.128739
    H   H115  0.966294  0.651890  0.392665  0.021500
    H   H116  0.909440  0.647994  0.358284  0.025784
    H   H117  0.885433  0.669927  0.401017  0.028641
    H   H118  0.858543  0.558464  0.385860  -0.005602
    H   H119  0.904608  0.569724  0.423496  0.005477
    C   C167  0.427802  0.905387  0.395253  0.101441
    C   C168  0.360170  0.917532  0.386071  -0.129151
    H   H120  0.348109  0.966340  0.392689  0.021677
    H   H121  0.351969  0.909505  0.358297  0.025885
    H   H122  0.330049  0.885479  0.401029  0.028764
    H   H123  0.441495  0.858560  0.385854  -0.005537
    H   H124  0.430272  0.904613  0.423497  0.005576
    C   C169  0.094626  0.572185  0.604748  0.102022
    C   C170  0.082499  0.639816  0.613938  -0.129411
    H   H125  0.033691  0.651890  0.607327  0.021661
    H   H126  0.090539  0.648006  0.641712  0.025974
    H   H127  0.114553  0.669935  0.598979  0.028808
    H   H128  0.141451  0.558477  0.614141  -0.005679
    H   H129  0.095391  0.569725  0.576503  0.005413
    C   C171  0.572197  0.905386  0.604747  0.101444
    C   C172  0.639829  0.917528  0.613930  -0.129173
    H   H130  0.651891  0.966336  0.607313  0.021673
    H   H131  0.648028  0.909500  0.641704  0.025885
    H   H132  0.669949  0.885475  0.598972  0.028780
    H   H133  0.558501  0.858559  0.614145  -0.005536
    H   H134  0.569728  0.904613  0.576503  0.005577
    C   C173  0.905374  0.427815  0.604748  0.101970
    C   C174  0.917501  0.360184  0.613938  -0.129333
    H   H135  0.966309  0.348110  0.607327  0.021634
    H   H136  0.909461  0.351994  0.641712  0.025956
    H   H137  0.885447  0.330065  0.598979  0.028793
    H   H138  0.858549  0.441523  0.614141  -0.005669
    H   H139  0.904609  0.430275  0.576503  0.005419
    C   C175  0.427803  0.094614  0.604747  0.101471
    C   C176  0.360171  0.082472  0.613930  -0.129318
    H   H140  0.348109  0.033664  0.607313  0.021707
    H   H141  0.351973  0.090500  0.641704  0.025914
    H   H142  0.330051  0.114525  0.598972  0.028842
    H   H143  0.441499  0.141441  0.614145  -0.005542
    H   H144  0.430272  0.095387  0.576503  0.005567
