# Generated by REPEAT Assigner based on pymatgen
data_DB0-m2_o1_o3_f0_pcu.sym.18_sqe
_audit_creation_date              2022-05-24
_audit_creation_method            REPEAT_Assigner
_cell_length_a                    10.854353
_cell_length_b                    9.403727
_cell_length_c                    19.324343
_cell_angle_alpha                 90.000000
_cell_angle_beta                  89.995039
_cell_angle_gamma                 90.000000
_cell_volume                      1972.462103
_symmetry_space_group_name_H-M    P1
_symmetry_Int_Tables_number       1
loop_
    _symmetry_equiv_pos_site_id
    _symmetry_equiv_pos_as_xyz
    1  x,y,z
loop_
    _atom_site_type_symbol
    _atom_site_label
    _atom_site_fract_x
    _atom_site_fract_y
    _atom_site_fract_z
    _atom_type_partial_charge
    O   O1   0.320283  0.622961  0.496009  -0.574232
    O   O2   0.678182  0.377070  0.501285  -0.579713
    O   O3   0.678316  0.621472  0.498616  -0.585965
    O   O4   0.320154  0.378994  0.504141  -0.593292
    C   C1   0.871350  0.499588  0.499881  -0.059833
    C   C2   0.127120  0.500628  0.500003  -0.045505
    C   C3   0.262334  0.500972  0.500078  0.657851
    C   C4   0.736137  0.499272  0.499903  0.661856
    O   O5   0.497667  0.621992  0.399123  -0.618573
    O   O6   0.506042  0.378494  0.600852  -0.615871
    O   O7   0.492477  0.622799  0.600231  -0.620419
    O   O8   0.500608  0.377219  0.399747  -0.631428
    C   C5   0.499213  0.499292  0.367176  0.720870
    C   C6   0.499324  0.500977  0.632836  0.705072
    Cu  Cu1  0.499325  0.642345  0.499681  0.908185
    Cu  Cu2  0.499013  0.357904  0.500371  0.881549
    H   H1   0.362304  0.131165  0.423352  0.138984
    H   H2   0.632991  0.868994  0.578364  0.100337
    H   H3   0.633133  0.129654  0.578952  0.150310
    H   H4   0.362782  0.870512  0.422468  0.113713
    C   C7   0.063093  0.373603  0.502544  -0.083324
    C   C8   0.935381  0.626607  0.497347  -0.070725
    C   C9   0.936027  0.373083  0.502417  -0.086084
    C   C10  0.062443  0.627117  0.497337  -0.099370
    H   H5   0.111212  0.273097  0.504551  0.105167
    H   H6   0.887264  0.727103  0.495271  0.103840
    H   H7   0.888390  0.272280  0.504404  0.106344
    H   H8   0.110076  0.727914  0.495311  0.110552
    C   C11  0.577378  0.412207  0.744079  -0.218305
    C   C12  0.577621  0.587801  0.256060  -0.185122
    C   C13  0.421889  0.409549  0.255970  -0.215662
    C   C14  0.422321  0.591253  0.744129  -0.177424
    H   H9   0.640762  0.345332  0.715749  0.160464
    H   H10  0.641190  0.654268  0.284487  0.149013
    H   H11  0.358141  0.343154  0.284315  0.156724
    H   H12  0.358770  0.658024  0.715864  0.148811
    C   C15  0.582911  0.417108  0.815401  -0.041492
    C   C16  0.583293  0.582778  0.184754  -0.065482
    C   C17  0.416406  0.414796  0.184651  -0.044508
    C   C18  0.416943  0.586234  0.815466  -0.073698
    C   C19  0.499852  0.501509  0.852001  0.001883
    C   C20  0.499804  0.498963  0.148130  -0.000092
    C   C21  0.423064  0.073809  0.457757  -0.056143
    C   C22  0.572913  0.926390  0.543594  0.032780
    C   C23  0.572905  0.073038  0.543967  -0.080680
    C   C24  0.423328  0.927163  0.457263  0.007642
    C   C25  0.499739  0.501636  0.708409  0.047358
    C   C26  0.499648  0.498715  0.291661  0.048104
    C   C27  0.501493  0.627298  0.964662  -0.099289
    C   C28  0.500454  0.373174  0.035467  -0.096862
    C   C29  0.498486  0.626662  0.036001  -0.094247
    C   C30  0.497414  0.373839  0.964130  -0.100230
    H   H13  0.505551  0.727912  0.937738  0.104222
    H   H14  0.503709  0.272518  0.062387  0.105112
    H   H15  0.495252  0.726819  0.063362  0.102997
    H   H16  0.493428  0.273711  0.936772  0.106018
    N   N1   0.499883  0.855077  0.499309  -0.051527
    N   N2   0.498356  0.145170  0.500820  0.018094
    C   C31  0.499560  0.499591  0.071957  0.048850
    C   C32  0.499532  0.500893  0.928174  0.052992
    C   C33  0.680716  0.334940  0.849690  0.641483
    O   O9   0.702768  0.214361  0.830083  -0.525257
    C   C34  0.763800  0.401852  0.902035  -0.438287
    H   H17  0.743908  0.516904  0.907345  0.087472
    H   H18  0.860543  0.389950  0.884510  0.134699
    H   H19  0.753366  0.347610  0.952640  0.120634
    C   C35  0.681804  0.663944  0.150534  0.659612
    O   O10  0.704721  0.784311  0.170135  -0.528962
    C   C36  0.764706  0.596004  0.098412  -0.442431
    H   H20  0.743993  0.481130  0.093198  0.089097
    H   H21  0.861422  0.607038  0.116116  0.135328
    H   H22  0.754971  0.650098  0.047727  0.119005
    C   C37  0.317884  0.333942  0.150303  0.644161
    O   O11  0.295322  0.213182  0.169458  -0.525957
    C   C38  0.234588  0.402599  0.098614  -0.437059
    H   H23  0.255154  0.517591  0.093803  0.087436
    H   H24  0.137992  0.391130  0.116461  0.134538
    H   H25  0.244097  0.349372  0.047700  0.119312
    C   C39  0.319083  0.668062  0.849864  0.664367
    O   O12  0.297537  0.789129  0.830800  -0.529576
    C   C40  0.235359  0.600231  0.901602  -0.447116
    H   H26  0.255104  0.485044  0.906387  0.090619
    H   H27  0.138816  0.612647  0.883825  0.135985
    H   H28  0.245367  0.653329  0.952517  0.120299
