# Generated by REPEAT Assigner based on pymatgen
data_DB0-m2_o1_o3_f0_pcu.sym.8_sqe
_audit_creation_date              2022-05-24
_audit_creation_method            REPEAT_Assigner
_cell_length_a                    10.906100
_cell_length_b                    9.403788
_cell_length_c                    19.359632
_cell_angle_alpha                 90.000000
_cell_angle_beta                  89.995024
_cell_angle_gamma                 90.000000
_cell_volume                      1985.497755
_symmetry_space_group_name_H-M    P1
_symmetry_Int_Tables_number       1
loop_
    _symmetry_equiv_pos_site_id
    _symmetry_equiv_pos_as_xyz
    1  x,y,z
loop_
    _atom_site_type_symbol
    _atom_site_label
    _atom_site_fract_x
    _atom_site_fract_y
    _atom_site_fract_z
    _atom_type_partial_charge
    O   O1   0.321835  0.621379  0.502293  -0.529994
    O   O2   0.677661  0.378049  0.502237  -0.541785
    O   O3   0.678079  0.621738  0.501646  -0.530896
    O   O4   0.321268  0.377910  0.501776  -0.519385
    C   C1   0.871414  0.500306  0.500708  -0.420460
    C   C2   0.127906  0.500298  0.500430  -0.410878
    C   C3   0.263181  0.499979  0.500686  0.829778
    C   C4   0.735746  0.499773  0.500407  0.851896
    O   O5   0.503575  0.621780  0.399656  -0.592540
    O   O6   0.495727  0.377332  0.600360  -0.567571
    O   O7   0.504631  0.621634  0.600362  -0.570231
    O   O8   0.496853  0.378532  0.399598  -0.594439
    C   C5   0.501454  0.500025  0.366961  0.582563
    C   C6   0.500684  0.499392  0.632663  0.586177
    Cu  Cu1  0.499201  0.641814  0.500369  0.771293
    Cu  Cu2  0.499916  0.357735  0.499628  0.769818
    H   H1   0.361262  0.126020  0.421692  0.119370
    H   H2   0.635290  0.869283  0.576808  0.124254
    H   H3   0.633206  0.133954  0.575495  0.121321
    H   H4   0.363176  0.868893  0.423113  0.116376
    C   C7   0.063688  0.373318  0.499846  0.254923
    C   C8   0.937116  0.627240  0.500356  0.259664
    C   C9   0.937128  0.373341  0.500112  0.259903
    C   C10  0.063445  0.626879  0.500167  0.261420
    C   C11  0.497958  0.373879  0.744655  -0.098684
    C   C12  0.501420  0.626160  0.254873  -0.109013
    C   C13  0.498218  0.372799  0.254900  -0.108635
    C   C14  0.501859  0.627740  0.744093  -0.094583
    H   H5   0.496673  0.272392  0.718573  0.109504
    H   H6   0.501249  0.726785  0.281848  0.115074
    H   H7   0.496877  0.272444  0.281882  0.115498
    H   H8   0.501894  0.727974  0.716904  0.109354
    C   C15  0.497555  0.374120  0.815945  -0.161866
    C   C16  0.500752  0.626556  0.183458  -0.168107
    C   C17  0.496813  0.373049  0.183721  -0.165730
    C   C18  0.501976  0.627663  0.815232  -0.166776
    H   H9   0.498381  0.273888  0.843506  0.114088
    H   H10  0.497037  0.727238  0.156555  0.116372
    H   H11  0.495287  0.272048  0.157297  0.116511
    H   H12  0.500988  0.728699  0.841565  0.117187
    C   C19  0.499710  0.500968  0.851612  0.107133
    C   C20  0.499356  0.499675  0.147153  0.112031
    C   C21  0.422452  0.072259  0.457585  -0.003360
    C   C22  0.573036  0.926989  0.543095  -0.006898
    C   C23  0.572810  0.074234  0.542865  -0.001830
    C   C24  0.422598  0.925914  0.457887  0.002484
    C   C25  0.500523  0.500686  0.708277  -0.000193
    C   C26  0.501218  0.499237  0.291004  0.024267
    C   C27  0.568808  0.597500  0.963110  -0.141081
    C   C28  0.429402  0.402232  0.034751  -0.140732
    C   C29  0.567810  0.598249  0.034307  -0.130789
    C   C30  0.430433  0.401444  0.963478  -0.136555
    H   H13  0.625984  0.673148  0.936051  0.106783
    H   H14  0.370333  0.328564  0.061684  0.107683
    H   H15  0.624200  0.674446  0.060962  0.106525
    H   H16  0.372746  0.326029  0.936668  0.109298
    N   N1   0.500002  0.854607  0.499533  -0.029177
    N   N2   0.498832  0.144970  0.499588  -0.027268
    C   C31  0.498697  0.500207  0.070842  0.056523
    C   C32  0.499743  0.499660  0.927201  0.063261
    F   F1   0.121519  0.245514  0.500116  -0.162488
    F   F2   0.879184  0.754527  0.500310  -0.162272
    F   F3   0.878523  0.245883  0.500096  -0.163080
    F   F4   0.121836  0.753418  0.500517  -0.161034
