# Generated by REPEAT Assigner based on pymatgen
data_DB0-m2_o1_o3_f0_nbo.sym.17
_audit_creation_date              2022-05-24
_audit_creation_method            REPEAT_Assigner
_cell_length_a                    21.589880
_cell_length_b                    21.589880
_cell_length_c                    38.545700
_cell_angle_alpha                 90.000000
_cell_angle_beta                  90.000000
_cell_angle_gamma                 90.000000
_cell_volume                      17967.033677
_symmetry_space_group_name_H-M    P1
_symmetry_Int_Tables_number       1
loop_
    _symmetry_equiv_pos_site_id
    _symmetry_equiv_pos_as_xyz
    1  x,y,z
loop_
    _atom_site_type_symbol
    _atom_site_label
    _atom_site_fract_x
    _atom_site_fract_y
    _atom_site_fract_z
    _atom_type_partial_charge
    O   O1    0.588336  0.051082  0.509457  -0.551464
    O   O2    0.948918  0.588336  0.509457  -0.551468
    O   O3    0.411664  0.948918  0.509457  -0.551464
    O   O4    0.051082  0.411664  0.509457  -0.551460
    O   O5    0.588336  0.948918  0.490543  -0.551509
    O   O6    0.948918  0.411664  0.490543  -0.551505
    O   O7    0.411664  0.051082  0.490543  -0.551501
    O   O8    0.051082  0.588336  0.490543  -0.551505
    O   O9    0.088336  0.551082  0.009457  -0.551527
    O   O10   0.448918  0.088336  0.009457  -0.551528
    O   O11   0.911664  0.448918  0.009457  -0.551529
    O   O12   0.551082  0.911664  0.009457  -0.551528
    O   O13   0.088336  0.448918  0.990543  -0.551530
    O   O14   0.448918  0.911664  0.990543  -0.551531
    O   O15   0.911664  0.551082  0.990543  -0.551530
    O   O16   0.551082  0.088336  0.990543  -0.551530
    C   C1    0.617536  0.000000  0.500000  0.849046
    C   C2    0.000000  0.617536  0.500000  0.849047
    C   C3    0.382464  0.000000  0.500000  0.849038
    C   C4    0.000000  0.382464  0.500000  0.849038
    C   C5    0.117536  0.500000  0.000000  0.849199
    C   C6    0.500000  0.117536  0.000000  0.849199
    C   C7    0.882464  0.500000  0.000000  0.849186
    C   C8    0.500000  0.882464  0.000000  0.849186
    O   O17   0.483200  0.051160  0.549594  -0.627443
    O   O18   0.948840  0.483200  0.549594  -0.627448
    O   O19   0.516800  0.948840  0.549594  -0.627448
    O   O20   0.051160  0.516800  0.549594  -0.627444
    O   O21   0.483200  0.948840  0.450406  -0.627436
    O   O22   0.948840  0.516800  0.450406  -0.627437
    O   O23   0.516800  0.051160  0.450406  -0.627432
    O   O24   0.051160  0.483200  0.450406  -0.627432
    O   O25   0.983200  0.551160  0.049594  -0.627442
    O   O26   0.448840  0.983200  0.049594  -0.627444
    O   O27   0.016800  0.448840  0.049594  -0.627442
    O   O28   0.551160  0.016800  0.049594  -0.627441
    O   O29   0.983200  0.448840  0.950406  -0.627454
    O   O30   0.448840  0.016800  0.950406  -0.627452
    O   O31   0.016800  0.551160  0.950406  -0.627450
    O   O32   0.551160  0.983200  0.950406  -0.627452
    C   C9    0.500000  0.000000  0.565865  0.678037
    C   C10   0.000000  0.500000  0.565865  0.678038
    C   C11   0.500000  0.000000  0.434135  0.678021
    C   C12   0.000000  0.500000  0.434135  0.678021
    C   C13   0.000000  0.500000  0.065865  0.678027
    C   C14   0.500000  0.000000  0.065865  0.678027
    C   C15   0.000000  0.500000  0.934135  0.677978
    C   C16   0.500000  0.000000  0.934135  0.677978
    Cu  Cu1   0.500000  0.060546  0.500000  0.957544
    Cu  Cu2   0.939454  0.500000  0.500000  0.957550
    Cu  Cu3   0.500000  0.939454  0.500000  0.957550
    Cu  Cu4   0.060546  0.500000  0.500000  0.957544
    Cu  Cu5   0.000000  0.560546  0.000000  0.957587
    Cu  Cu6   0.439454  0.000000  0.000000  0.957591
    Cu  Cu7   0.000000  0.439454  0.000000  0.957591
    Cu  Cu8   0.560546  0.000000  0.000000  0.957587
    C   C17   0.555241  0.000317  0.878112  -0.027089
    C   C18   0.999683  0.555241  0.878112  -0.027089
    C   C19   0.444759  0.999683  0.878112  -0.027086
    C   C20   0.000317  0.444759  0.878112  -0.027086
    C   C21   0.555241  0.999683  0.121888  -0.027076
    C   C22   0.999683  0.444759  0.121888  -0.027073
    C   C23   0.444759  0.000317  0.121888  -0.027073
    C   C24   0.000317  0.555241  0.121888  -0.027076
    C   C25   0.055241  0.500317  0.378112  -0.027075
    C   C26   0.499683  0.055241  0.378112  -0.027074
    C   C27   0.944759  0.499683  0.378112  -0.027074
    C   C28   0.500317  0.944759  0.378112  -0.027075
    C   C29   0.055241  0.499683  0.621888  -0.027087
    C   C30   0.499683  0.944759  0.621888  -0.027087
    C   C31   0.944759  0.500317  0.621888  -0.027088
    C   C32   0.500317  0.055241  0.621888  -0.027088
    H   H1    0.598998  0.001409  0.891703  0.128551
    H   H2    0.998591  0.598998  0.891703  0.128550
    H   H3    0.401002  0.998591  0.891703  0.128549
    H   H4    0.001409  0.401002  0.891703  0.128550
    H   H5    0.598998  0.998591  0.108297  0.128549
    H   H6    0.998591  0.401002  0.108297  0.128549
    H   H7    0.401002  0.001409  0.108297  0.128550
    H   H8    0.001409  0.598998  0.108297  0.128550
    H   H9    0.098998  0.501409  0.391703  0.128548
    H   H10   0.498591  0.098998  0.391703  0.128548
    H   H11   0.901002  0.498591  0.391703  0.128548
    H   H12   0.501409  0.901002  0.391703  0.128548
    H   H13   0.098998  0.498591  0.608297  0.128550
    H   H14   0.498591  0.901002  0.608297  0.128550
    H   H15   0.901002  0.501409  0.608297  0.128551
    H   H16   0.501409  0.098998  0.608297  0.128551
    C   C33   0.555207  0.001048  0.842357  -0.330147
    C   C34   0.998952  0.555207  0.842357  -0.330146
    C   C35   0.444793  0.998952  0.842357  -0.330149
    C   C36   0.001048  0.444793  0.842357  -0.330151
    C   C37   0.555207  0.998952  0.157643  -0.330153
    C   C38   0.998952  0.444793  0.157643  -0.330157
    C   C39   0.444793  0.001048  0.157643  -0.330159
    C   C40   0.001048  0.555207  0.157643  -0.330155
    C   C41   0.055207  0.501048  0.342357  -0.330154
    C   C42   0.498952  0.055207  0.342357  -0.330154
    C   C43   0.944793  0.498952  0.342357  -0.330157
    C   C44   0.501048  0.944793  0.342357  -0.330157
    C   C45   0.055207  0.498952  0.657643  -0.330150
    C   C46   0.498952  0.944793  0.657643  -0.330153
    C   C47   0.944793  0.501048  0.657643  -0.330153
    C   C48   0.501048  0.055207  0.657643  -0.330150
    H   H17   0.598906  0.003418  0.828758  0.169652
    H   H18   0.996582  0.598906  0.828758  0.169652
    H   H19   0.401094  0.996582  0.828758  0.169653
    H   H20   0.003418  0.401094  0.828758  0.169653
    H   H21   0.598906  0.996582  0.171242  0.169651
    H   H22   0.996582  0.401094  0.171242  0.169652
    H   H23   0.401094  0.003418  0.171242  0.169652
    H   H24   0.003418  0.598906  0.171242  0.169651
    H   H25   0.098906  0.503418  0.328758  0.169652
    H   H26   0.496582  0.098906  0.328758  0.169652
    H   H27   0.901094  0.496582  0.328758  0.169653
    H   H28   0.503418  0.901094  0.328758  0.169653
    H   H29   0.098906  0.496582  0.671242  0.169649
    H   H30   0.496582  0.901094  0.671242  0.169651
    H   H31   0.901094  0.503418  0.671242  0.169651
    H   H32   0.503418  0.098906  0.671242  0.169649
    C   C49   0.500000  0.000000  0.824203  0.502626
    C   C50   0.000000  0.500000  0.824203  0.502626
    C   C51   0.500000  0.000000  0.175797  0.502649
    C   C52   0.000000  0.500000  0.175797  0.502649
    C   C53   0.000000  0.500000  0.324203  0.502648
    C   C54   0.500000  0.000000  0.324203  0.502648
    C   C55   0.000000  0.500000  0.675797  0.502646
    C   C56   0.500000  0.000000  0.675797  0.502646
    C   C57   0.500000  0.000000  0.896162  -0.063788
    C   C58   0.000000  0.500000  0.896162  -0.063788
    C   C59   0.500000  0.000000  0.103838  -0.063836
    C   C60   0.000000  0.500000  0.103838  -0.063836
    C   C61   0.000000  0.500000  0.396162  -0.063837
    C   C62   0.500000  0.000000  0.396162  -0.063836
    C   C63   0.000000  0.500000  0.603838  -0.063808
    C   C64   0.500000  0.000000  0.603838  -0.063808
    C   C65   0.461112  0.039257  0.767876  0.263484
    C   C66   0.960743  0.461112  0.767876  0.263484
    C   C67   0.538888  0.960743  0.767876  0.263484
    C   C68   0.039257  0.538888  0.767876  0.263483
    C   C69   0.461112  0.960743  0.232124  0.263490
    C   C70   0.960743  0.538888  0.232124  0.263489
    C   C71   0.538888  0.039257  0.232124  0.263489
    C   C72   0.039257  0.461112  0.232124  0.263489
    C   C73   0.961112  0.539257  0.267876  0.263492
    C   C74   0.460743  0.961112  0.267876  0.263492
    C   C75   0.038888  0.460743  0.267876  0.263489
    C   C76   0.539257  0.038888  0.267876  0.263489
    C   C77   0.961112  0.460743  0.732124  0.263492
    C   C78   0.460743  0.038888  0.732124  0.263490
    C   C79   0.038888  0.539257  0.732124  0.263490
    C   C80   0.539257  0.961112  0.732124  0.263492
    C   C81   0.500000  0.000000  0.713936  -0.436289
    C   C82   0.000000  0.500000  0.713936  -0.436289
    C   C83   0.500000  0.000000  0.286064  -0.436292
    C   C84   0.000000  0.500000  0.286064  -0.436292
    C   C85   0.000000  0.500000  0.213936  -0.436288
    C   C86   0.500000  0.000000  0.213936  -0.436288
    C   C87   0.000000  0.500000  0.786064  -0.436277
    C   C88   0.500000  0.000000  0.786064  -0.436276
    C   C89   0.718064  0.960182  0.478518  0.259177
    C   C90   0.039818  0.718064  0.478518  0.259174
    C   C91   0.281936  0.039818  0.478518  0.259169
    C   C92   0.960182  0.281936  0.478518  0.259171
    C   C93   0.718064  0.039818  0.521482  0.258794
    C   C94   0.039818  0.281936  0.521482  0.258788
    C   C95   0.281936  0.960182  0.521482  0.258790
    C   C96   0.960182  0.718064  0.521482  0.258796
    C   C97   0.218064  0.460182  0.978518  0.259403
    C   C98   0.539818  0.218064  0.978518  0.259404
    C   C99   0.781936  0.539818  0.978518  0.259396
    C   C100  0.460182  0.781936  0.978518  0.259395
    C   C101  0.218064  0.539818  0.021482  0.259387
    C   C102  0.539818  0.781936  0.021482  0.259379
    C   C103  0.781936  0.460182  0.021482  0.259380
    C   C104  0.460182  0.218064  0.021482  0.259388
    C   C105  0.781909  0.960532  0.478320  0.258440
    C   C106  0.039468  0.781909  0.478320  0.258439
    C   C107  0.218091  0.039468  0.478320  0.258446
    C   C108  0.960532  0.218091  0.478320  0.258448
    C   C109  0.781909  0.039468  0.521680  0.258705
    C   C110  0.039468  0.218091  0.521680  0.258714
    C   C111  0.218091  0.960532  0.521680  0.258716
    C   C112  0.960532  0.781909  0.521680  0.258708
    C   C113  0.281909  0.460532  0.978320  0.258228
    C   C114  0.539468  0.281909  0.978320  0.258224
    C   C115  0.718091  0.539468  0.978320  0.258230
    C   C116  0.460532  0.718091  0.978320  0.258233
    C   C117  0.281909  0.539468  0.021680  0.258222
    C   C118  0.539468  0.718091  0.021680  0.258228
    C   C119  0.718091  0.460532  0.021680  0.258230
    C   C120  0.460532  0.281909  0.021680  0.258225
    C   C121  0.814370  0.000000  0.500000  -0.378142
    C   C122  0.000000  0.814370  0.500000  -0.378143
    C   C123  0.185630  0.000000  0.500000  -0.378156
    C   C124  0.000000  0.185630  0.500000  -0.378156
    C   C125  0.314370  0.500000  0.000000  -0.377858
    C   C126  0.500000  0.314370  0.000000  -0.377858
    C   C127  0.685630  0.500000  0.000000  -0.377865
    C   C128  0.500000  0.685630  0.000000  -0.377865
    C   C129  0.685588  0.000000  0.500000  -0.398027
    C   C130  0.000000  0.685588  0.500000  -0.398027
    C   C131  0.314412  0.000000  0.500000  -0.398020
    C   C132  0.000000  0.314412  0.500000  -0.398020
    C   C133  0.185588  0.500000  0.000000  -0.398458
    C   C134  0.500000  0.185588  0.000000  -0.398459
    C   C135  0.814412  0.500000  0.000000  -0.398444
    C   C136  0.500000  0.814412  0.000000  -0.398443
    O   O33   0.982139  0.088377  0.471573  -0.591639
    O   O34   0.911623  0.982139  0.471573  -0.591640
    O   O35   0.017861  0.911623  0.471573  -0.591640
    O   O36   0.088377  0.017861  0.471573  -0.591639
    O   O37   0.982139  0.911623  0.528427  -0.591673
    O   O38   0.911623  0.017861  0.528427  -0.591672
    O   O39   0.017861  0.088377  0.528427  -0.591671
    O   O40   0.088377  0.982139  0.528427  -0.591672
    O   O41   0.482139  0.588377  0.971573  -0.591691
    O   O42   0.411623  0.482139  0.971573  -0.591688
    O   O43   0.517861  0.411623  0.971573  -0.591688
    O   O44   0.588377  0.517861  0.971573  -0.591692
    O   O45   0.482139  0.411623  0.028427  -0.591663
    O   O46   0.411623  0.517861  0.028427  -0.591664
    O   O47   0.517861  0.588377  0.028427  -0.591667
    O   O48   0.588377  0.482139  0.028427  -0.591667
    C   C137  0.000000  0.117595  0.500000  0.870571
    C   C138  0.882405  0.000000  0.500000  0.870559
    C   C139  0.000000  0.882405  0.500000  0.870560
    C   C140  0.117595  0.000000  0.500000  0.870571
    C   C141  0.500000  0.617595  0.000000  0.870587
    C   C142  0.382405  0.500000  0.000000  0.870578
    C   C143  0.500000  0.382405  0.000000  0.870578
    C   C144  0.617595  0.500000  0.000000  0.870587
    Cu  Cu9   0.000000  0.000000  0.466257  0.936533
    Cu  Cu10  0.000000  0.000000  0.533743  0.936575
    Cu  Cu11  0.500000  0.500000  0.966257  0.936586
    Cu  Cu12  0.500000  0.500000  0.033743  0.936555
    F   F1    0.424052  0.079920  0.784811  -0.171086
    F   F2    0.920080  0.424052  0.784811  -0.171087
    F   F3    0.575948  0.920080  0.784811  -0.171087
    F   F4    0.079920  0.575948  0.784811  -0.171086
    F   F5    0.424052  0.920080  0.215189  -0.171090
    F   F6    0.920080  0.575948  0.215189  -0.171090
    F   F7    0.575948  0.079920  0.215189  -0.171089
    F   F8    0.079920  0.424052  0.215189  -0.171090
    F   F9    0.924052  0.579920  0.284811  -0.171089
    F   F10   0.420080  0.924052  0.284811  -0.171088
    F   F11   0.075948  0.420080  0.284811  -0.171088
    F   F12   0.579920  0.075948  0.284811  -0.171088
    F   F13   0.924052  0.420080  0.715189  -0.171089
    F   F14   0.420080  0.075948  0.715189  -0.171088
    F   F15   0.075948  0.579920  0.715189  -0.171088
    F   F16   0.579920  0.924052  0.715189  -0.171089
    F   F17   0.687966  0.921393  0.456606  -0.154828
    F   F18   0.078607  0.687966  0.456606  -0.154827
    F   F19   0.312034  0.078607  0.456606  -0.154826
    F   F20   0.921393  0.312034  0.456606  -0.154827
    F   F21   0.687966  0.078607  0.543394  -0.154747
    F   F22   0.078607  0.312034  0.543394  -0.154746
    F   F23   0.312034  0.921393  0.543394  -0.154747
    F   F24   0.921393  0.687966  0.543394  -0.154747
    F   F25   0.187966  0.421393  0.956606  -0.154853
    F   F26   0.578607  0.187966  0.956606  -0.154853
    F   F27   0.812034  0.578607  0.956606  -0.154852
    F   F28   0.421393  0.812034  0.956606  -0.154852
    F   F29   0.187966  0.578607  0.043394  -0.154844
    F   F30   0.578607  0.812034  0.043394  -0.154843
    F   F31   0.812034  0.421393  0.043394  -0.154844
    F   F32   0.421393  0.187966  0.043394  -0.154845
    F   F33   0.812040  0.920320  0.457244  -0.150456
    F   F34   0.079680  0.812040  0.457244  -0.150456
    F   F35   0.187960  0.079680  0.457244  -0.150457
    F   F36   0.920320  0.187960  0.457244  -0.150458
    F   F37   0.812040  0.079680  0.542756  -0.150484
    F   F38   0.079680  0.187960  0.542756  -0.150486
    F   F39   0.187960  0.920320  0.542756  -0.150487
    F   F40   0.920320  0.812040  0.542756  -0.150485
    F   F41   0.312040  0.420320  0.957244  -0.150425
    F   F42   0.579680  0.312040  0.957244  -0.150424
    F   F43   0.687960  0.579680  0.957244  -0.150425
    F   F44   0.420320  0.687960  0.957244  -0.150426
    F   F45   0.312040  0.579680  0.042756  -0.150426
    F   F46   0.579680  0.687960  0.042756  -0.150427
    F   F47   0.687960  0.420320  0.042756  -0.150427
    F   F48   0.420320  0.312040  0.042756  -0.150427
