# Generated by REPEAT Assigner based on pymatgen
data_DB0-m2_o1_o3_f0_nbo.sym.8
_audit_creation_date              2022-05-24
_audit_creation_method            REPEAT_Assigner
_cell_length_a                    21.546598
_cell_length_b                    21.546598
_cell_length_c                    38.507751
_cell_angle_alpha                 90.000000
_cell_angle_beta                  90.000000
_cell_angle_gamma                 90.000000
_cell_volume                      17877.449517
_symmetry_space_group_name_H-M    P1
_symmetry_Int_Tables_number       1
loop_
    _symmetry_equiv_pos_site_id
    _symmetry_equiv_pos_as_xyz
    1  x,y,z
loop_
    _atom_site_type_symbol
    _atom_site_label
    _atom_site_fract_x
    _atom_site_fract_y
    _atom_site_fract_z
    _atom_type_partial_charge
    O   O1    0.588592  0.051322  0.509248  -0.597650
    O   O2    0.948678  0.588592  0.509248  -0.597641
    O   O3    0.411408  0.948678  0.509248  -0.597641
    O   O4    0.051322  0.411408  0.509248  -0.597651
    O   O5    0.588592  0.948678  0.490752  -0.597640
    O   O6    0.948678  0.411408  0.490752  -0.597642
    O   O7    0.411408  0.051322  0.490752  -0.597651
    O   O8    0.051322  0.588592  0.490752  -0.597649
    O   O9    0.088592  0.551322  0.009248  -0.597642
    O   O10   0.448678  0.088592  0.009248  -0.597690
    O   O11   0.911408  0.448678  0.009248  -0.597646
    O   O12   0.551322  0.911408  0.009248  -0.597641
    O   O13   0.088592  0.448678  0.990752  -0.597659
    O   O14   0.448678  0.911408  0.990752  -0.597660
    O   O15   0.911408  0.551322  0.990752  -0.597655
    O   O16   0.551322  0.088592  0.990752  -0.597680
    C   C1    0.617761  0.000000  0.500000  0.722477
    C   C2    0.000000  0.617761  0.500000  0.722474
    C   C3    0.382239  0.000000  0.500000  0.722478
    C   C4    0.000000  0.382239  0.500000  0.722479
    C   C5    0.117761  0.500000  0.000000  0.722510
    C   C6    0.500000  0.117761  0.000000  0.722711
    C   C7    0.882239  0.500000  0.000000  0.722520
    C   C8    0.500000  0.882239  0.000000  0.722536
    O   O17   0.483583  0.051405  0.549688  -0.628463
    O   O18   0.948595  0.483583  0.549688  -0.628459
    O   O19   0.516417  0.948595  0.549688  -0.628453
    O   O20   0.051405  0.516417  0.549688  -0.628467
    O   O21   0.483583  0.948595  0.450312  -0.628462
    O   O22   0.948595  0.516417  0.450312  -0.628468
    O   O23   0.516417  0.051405  0.450312  -0.628474
    O   O24   0.051405  0.483583  0.450312  -0.628475
    O   O25   0.983583  0.551405  0.049688  -0.628473
    O   O26   0.448595  0.983583  0.049688  -0.628479
    O   O27   0.016417  0.448595  0.049688  -0.628483
    O   O28   0.551405  0.016417  0.049688  -0.628482
    O   O29   0.983583  0.448595  0.950312  -0.628502
    O   O30   0.448595  0.016417  0.950312  -0.628513
    O   O31   0.016417  0.551405  0.950312  -0.628496
    O   O32   0.551405  0.983583  0.950312  -0.628501
    C   C9    0.500000  0.000000  0.565932  0.746090
    C   C10   0.000000  0.500000  0.565932  0.746097
    C   C11   0.500000  0.000000  0.434068  0.746109
    C   C12   0.000000  0.500000  0.434068  0.746112
    C   C13   0.000000  0.500000  0.065932  0.746080
    C   C14   0.500000  0.000000  0.065932  0.746053
    C   C15   0.000000  0.500000  0.934068  0.746165
    C   C16   0.500000  0.000000  0.934068  0.746143
    Cu  Cu1   0.500000  0.060761  0.500000  0.969401
    Cu  Cu2   0.939239  0.500000  0.500000  0.969432
    Cu  Cu3   0.500000  0.939239  0.500000  0.969400
    Cu  Cu4   0.060761  0.500000  0.500000  0.969402
    Cu  Cu5   0.000000  0.560761  0.000000  0.969433
    Cu  Cu6   0.439239  0.000000  0.000000  0.969437
    Cu  Cu7   0.000000  0.439239  0.000000  0.969398
    Cu  Cu8   0.560761  0.000000  0.000000  0.969420
    C   C17   0.553934  0.012325  0.878190  -0.341048
    C   C18   0.987675  0.553934  0.878190  -0.341041
    C   C19   0.446066  0.987675  0.878190  -0.341051
    C   C20   0.012325  0.446066  0.878190  -0.341039
    C   C21   0.553934  0.987675  0.121810  -0.340870
    C   C22   0.987675  0.446066  0.121810  -0.340865
    C   C23   0.446066  0.012325  0.121810  -0.340882
    C   C24   0.012325  0.553934  0.121810  -0.340866
    C   C25   0.053934  0.512325  0.378190  -0.340856
    C   C26   0.487675  0.053934  0.378190  -0.340854
    C   C27   0.946066  0.487675  0.378190  -0.340853
    C   C28   0.512325  0.946066  0.378190  -0.340853
    C   C29   0.053934  0.487675  0.621810  -0.340842
    C   C30   0.487675  0.946066  0.621810  -0.340843
    C   C31   0.946066  0.512325  0.621810  -0.340838
    C   C32   0.512325  0.053934  0.621810  -0.340847
    H   H1    0.595822  0.023789  0.892238  0.186353
    H   H2    0.976211  0.595822  0.892238  0.186355
    H   H3    0.404178  0.976211  0.892238  0.186360
    H   H4    0.023789  0.404178  0.892238  0.186353
    H   H5    0.595822  0.976211  0.107762  0.186284
    H   H6    0.976211  0.404178  0.107762  0.186282
    H   H7    0.404178  0.023789  0.107762  0.186287
    H   H8    0.023789  0.595822  0.107762  0.186281
    H   H9    0.095822  0.523789  0.392238  0.186278
    H   H10   0.476211  0.095822  0.392238  0.186278
    H   H11   0.904178  0.476211  0.392238  0.186277
    H   H12   0.523789  0.904178  0.392238  0.186278
    H   H13   0.095822  0.476211  0.607762  0.186270
    H   H14   0.476211  0.904178  0.607762  0.186270
    H   H15   0.904178  0.523789  0.607762  0.186269
    H   H16   0.523789  0.095822  0.607762  0.186271
    C   C33   0.554388  0.011607  0.842310  0.389544
    C   C34   0.988393  0.554388  0.842310  0.389540
    C   C35   0.445612  0.988393  0.842310  0.389533
    C   C36   0.011607  0.445612  0.842310  0.389537
    C   C37   0.554388  0.988393  0.157690  0.389331
    C   C38   0.988393  0.445612  0.157690  0.389333
    C   C39   0.445612  0.011607  0.157690  0.389338
    C   C40   0.011607  0.554388  0.157690  0.389337
    C   C41   0.054388  0.511607  0.342310  0.389324
    C   C42   0.488393  0.054388  0.342310  0.389318
    C   C43   0.945612  0.488393  0.342310  0.389320
    C   C44   0.511607  0.945612  0.342310  0.389315
    C   C45   0.054388  0.488393  0.657690  0.389338
    C   C46   0.488393  0.945612  0.657690  0.389332
    C   C47   0.945612  0.511607  0.657690  0.389333
    C   C48   0.511607  0.054388  0.657690  0.389340
    C   C49   0.500000  0.000000  0.824185  -0.206299
    C   C50   0.000000  0.500000  0.824185  -0.206297
    C   C51   0.500000  0.000000  0.175815  -0.206107
    C   C52   0.000000  0.500000  0.175815  -0.206107
    C   C53   0.000000  0.500000  0.324185  -0.206087
    C   C54   0.500000  0.000000  0.324185  -0.206082
    C   C55   0.000000  0.500000  0.675815  -0.206114
    C   C56   0.500000  0.000000  0.675815  -0.206114
    C   C57   0.500000  0.000000  0.896131  0.009946
    C   C58   0.000000  0.500000  0.896131  0.009918
    C   C59   0.500000  0.000000  0.103869  0.009887
    C   C60   0.000000  0.500000  0.103869  0.009861
    C   C61   0.000000  0.500000  0.396131  0.009833
    C   C62   0.500000  0.000000  0.396131  0.009840
    C   C63   0.000000  0.500000  0.603869  0.009818
    C   C64   0.500000  0.000000  0.603869  0.009832
    C   C65   0.461345  0.039461  0.767885  -0.147673
    C   C66   0.960539  0.461345  0.767885  -0.147670
    C   C67   0.538655  0.960539  0.767885  -0.147671
    C   C68   0.039461  0.538655  0.767885  -0.147671
    C   C69   0.461345  0.960539  0.232115  -0.147680
    C   C70   0.960539  0.538655  0.232115  -0.147678
    C   C71   0.538655  0.039461  0.232115  -0.147681
    C   C72   0.039461  0.461345  0.232115  -0.147681
    C   C73   0.961345  0.539461  0.267885  -0.147669
    C   C74   0.460539  0.961345  0.267885  -0.147665
    C   C75   0.038655  0.460539  0.267885  -0.147668
    C   C76   0.539461  0.038655  0.267885  -0.147668
    C   C77   0.961345  0.460539  0.732115  -0.147688
    C   C78   0.460539  0.038655  0.732115  -0.147688
    C   C79   0.038655  0.539461  0.732115  -0.147691
    C   C80   0.539461  0.961345  0.732115  -0.147690
    H   H17   0.431705  0.071637  0.781505  0.120229
    H   H18   0.928363  0.431705  0.781505  0.120229
    H   H19   0.568295  0.928363  0.781505  0.120228
    H   H20   0.071637  0.568295  0.781505  0.120229
    H   H21   0.431705  0.928363  0.218495  0.120235
    H   H22   0.928363  0.568295  0.218495  0.120234
    H   H23   0.568295  0.071637  0.218495  0.120235
    H   H24   0.071637  0.431705  0.218495  0.120235
    H   H25   0.931705  0.571637  0.281505  0.120231
    H   H26   0.428363  0.931705  0.281505  0.120229
    H   H27   0.068295  0.428363  0.281505  0.120230
    H   H28   0.571637  0.068295  0.281505  0.120230
    H   H29   0.931705  0.428363  0.718495  0.120242
    H   H30   0.428363  0.068295  0.718495  0.120243
    H   H31   0.068295  0.571637  0.718495  0.120244
    H   H32   0.571637  0.931705  0.718495  0.120244
    C   C81   0.500000  0.000000  0.713957  0.147995
    C   C82   0.000000  0.500000  0.713957  0.147994
    C   C83   0.500000  0.000000  0.286043  0.147983
    C   C84   0.000000  0.500000  0.286043  0.147984
    C   C85   0.000000  0.500000  0.213957  0.147997
    C   C86   0.500000  0.000000  0.213957  0.147994
    C   C87   0.000000  0.500000  0.786043  0.148053
    C   C88   0.500000  0.000000  0.786043  0.148053
    C   C89   0.718116  0.949270  0.487586  -0.367252
    C   C90   0.050730  0.718116  0.487586  -0.367241
    C   C91   0.281884  0.050730  0.487586  -0.367252
    C   C92   0.949270  0.281884  0.487586  -0.367244
    C   C93   0.718116  0.050730  0.512414  -0.367244
    C   C94   0.050730  0.281884  0.512414  -0.367240
    C   C95   0.281884  0.949270  0.512414  -0.367252
    C   C96   0.949270  0.718116  0.512414  -0.367230
    C   C97   0.218116  0.449270  0.987586  -0.367222
    C   C98   0.550730  0.218116  0.987586  -0.367360
    C   C99   0.781884  0.550730  0.987586  -0.367221
    C   C100  0.449270  0.781884  0.987586  -0.367212
    C   C101  0.218116  0.550730  0.012414  -0.367234
    C   C102  0.550730  0.781884  0.012414  -0.367224
    C   C103  0.781884  0.449270  0.012414  -0.367239
    C   C104  0.449270  0.218116  0.012414  -0.367077
    H   H33   0.693761  0.908860  0.478087  0.188075
    H   H34   0.091140  0.693761  0.478087  0.188072
    H   H35   0.306239  0.091140  0.478087  0.188076
    H   H36   0.908860  0.306239  0.478087  0.188073
    H   H37   0.693761  0.091140  0.521913  0.188071
    H   H38   0.091140  0.306239  0.521913  0.188070
    H   H39   0.306239  0.908860  0.521913  0.188074
    H   H40   0.908860  0.693762  0.521913  0.188068
    H   H41   0.193761  0.408860  0.978087  0.188066
    H   H42   0.591140  0.193761  0.978087  0.188124
    H   H43   0.806239  0.591140  0.978087  0.188069
    H   H44   0.408860  0.806239  0.978087  0.188064
    H   H45   0.193761  0.591140  0.021913  0.188069
    H   H46   0.591140  0.806239  0.021913  0.188064
    H   H47   0.806239  0.408860  0.021913  0.188066
    H   H48   0.408860  0.193761  0.021913  0.188029
    C   C105  0.782155  0.949775  0.486761  0.441819
    C   C106  0.050225  0.782155  0.486761  0.441800
    C   C107  0.217845  0.050225  0.486761  0.441816
    C   C108  0.949775  0.217845  0.486761  0.441809
    C   C109  0.782155  0.050225  0.513239  0.441826
    C   C110  0.050225  0.217845  0.513239  0.441822
    C   C111  0.217845  0.949775  0.513239  0.441834
    C   C112  0.949775  0.782155  0.513239  0.441805
    C   C113  0.282155  0.449775  0.986761  0.441810
    C   C114  0.550225  0.282155  0.986761  0.441988
    C   C115  0.717845  0.550225  0.986761  0.441810
    C   C116  0.449775  0.717845  0.986761  0.441803
    C   C117  0.282155  0.550225  0.013239  0.441827
    C   C118  0.550225  0.717845  0.013239  0.441823
    C   C119  0.717845  0.449775  0.013239  0.441837
    C   C120  0.449775  0.282155  0.013239  0.441808
    C   C121  0.814452  0.000000  0.500000  -0.270703
    C   C122  0.000000  0.814452  0.500000  -0.270683
    C   C123  0.185548  0.000000  0.500000  -0.270700
    C   C124  0.000000  0.185548  0.500000  -0.270692
    C   C125  0.314452  0.500000  0.000000  -0.270691
    C   C126  0.500000  0.314452  0.000000  -0.270713
    C   C127  0.685548  0.500000  0.000000  -0.270688
    C   C128  0.500000  0.685548  0.000000  -0.270672
    C   C129  0.685797  0.000000  0.500000  0.037825
    C   C130  0.000000  0.685797  0.500000  0.037815
    C   C131  0.314203  0.000000  0.500000  0.037826
    C   C132  0.000000  0.314203  0.500000  0.037815
    C   C133  0.185797  0.500000  0.000000  0.037779
    C   C134  0.500000  0.185797  0.000000  0.037552
    C   C135  0.814203  0.500000  0.000000  0.037772
    C   C136  0.500000  0.814203  0.000000  0.037750
    O   O33   0.981617  0.088443  0.471600  -0.526722
    O   O34   0.911557  0.981617  0.471600  -0.526718
    O   O35   0.018383  0.911557  0.471600  -0.526716
    O   O36   0.088443  0.018383  0.471600  -0.526718
    O   O37   0.981617  0.911557  0.528400  -0.526731
    O   O38   0.911557  0.018383  0.528400  -0.526729
    O   O39   0.018383  0.088443  0.528400  -0.526732
    O   O40   0.088443  0.981617  0.528400  -0.526729
    O   O41   0.481617  0.588443  0.971600  -0.526707
    O   O42   0.411557  0.481617  0.971600  -0.526706
    O   O43   0.518383  0.411557  0.971600  -0.526709
    O   O44   0.588443  0.518383  0.971600  -0.526701
    O   O45   0.481617  0.411557  0.028400  -0.526687
    O   O46   0.411557  0.518383  0.028400  -0.526697
    O   O47   0.518383  0.588443  0.028400  -0.526689
    O   O48   0.588443  0.481617  0.028400  -0.526696
    C   C137  0.000000  0.117588  0.500000  0.699805
    C   C138  0.882412  0.000000  0.500000  0.699812
    C   C139  0.000000  0.882412  0.500000  0.699806
    C   C140  0.117588  0.000000  0.500000  0.699806
    C   C141  0.500000  0.617588  0.000000  0.699746
    C   C142  0.382412  0.500000  0.000000  0.699767
    C   C143  0.500000  0.382412  0.000000  0.699734
    C   C144  0.617588  0.500000  0.000000  0.699758
    Cu  Cu9   0.000000  0.000000  0.466256  0.822369
    Cu  Cu10  0.000000  0.000000  0.533744  0.822387
    Cu  Cu11  0.500000  0.500000  0.966256  0.822318
    Cu  Cu12  0.500000  0.500000  0.033744  0.822428
    O   O49   0.607438  0.027568  0.824854  -0.359519
    C   C145  0.649211  0.978942  0.830454  0.150572
    H   H49   0.623858  0.935720  0.837066  -0.009582
    H   H50   0.681470  0.991272  0.851809  0.017274
    H   H51   0.676281  0.970813  0.806390  0.025252
    O   O50   0.972432  0.607438  0.824854  -0.359516
    C   C146  0.021058  0.649211  0.830454  0.150567
    H   H52   0.064280  0.623858  0.837066  -0.009580
    H   H53   0.008728  0.681470  0.851809  0.017274
    H   H54   0.029187  0.676281  0.806390  0.025253
    O   O51   0.392562  0.972432  0.824854  -0.359513
    C   C147  0.350789  0.021058  0.830454  0.150568
    H   H55   0.376142  0.064280  0.837066  -0.009578
    H   H56   0.318530  0.008728  0.851809  0.017272
    H   H57   0.323719  0.029187  0.806390  0.025253
    O   O52   0.027568  0.392562  0.824854  -0.359517
    C   C148  0.978942  0.350789  0.830454  0.150573
    H   H58   0.935720  0.376142  0.837066  -0.009582
    H   H59   0.991272  0.318530  0.851809  0.017272
    H   H60   0.970813  0.323719  0.806390  0.025251
    O   O53   0.607438  0.972432  0.175146  -0.359417
    C   C149  0.649211  0.021058  0.169546  0.150393
    H   H61   0.623858  0.064280  0.162934  -0.009530
    H   H62   0.681470  0.008728  0.148191  0.017310
    H   H63   0.676281  0.029187  0.193610  0.025302
    O   O54   0.972432  0.392562  0.175146  -0.359420
    C   C150  0.021058  0.350789  0.169546  0.150403
    H   H64   0.064280  0.376142  0.162934  -0.009534
    H   H65   0.008728  0.318530  0.148191  0.017308
    H   H66   0.029187  0.323719  0.193610  0.025300
    O   O55   0.392562  0.027568  0.175146  -0.359420
    C   C151  0.350789  0.978942  0.169546  0.150404
    H   H67   0.376142  0.935720  0.162934  -0.009536
    H   H68   0.318530  0.991272  0.148191  0.017307
    H   H69   0.323719  0.970813  0.193610  0.025300
    O   O56   0.027568  0.607438  0.175146  -0.359421
    C   C152  0.978942  0.649211  0.169546  0.150400
    H   H70   0.935720  0.623858  0.162934  -0.009534
    H   H71   0.991272  0.681470  0.148191  0.017309
    H   H72   0.970813  0.676281  0.193610  0.025301
    O   O57   0.107438  0.527568  0.324854  -0.359422
    C   C153  0.149211  0.478942  0.330454  0.150408
    H   H73   0.123858  0.435720  0.337066  -0.009533
    H   H74   0.181470  0.491272  0.351809  0.017307
    H   H75   0.176281  0.470813  0.306390  0.025300
    O   O58   0.472432  0.107438  0.324854  -0.359417
    C   C154  0.521058  0.149211  0.330454  0.150398
    H   H76   0.564280  0.123858  0.337066  -0.009530
    H   H77   0.508728  0.181470  0.351809  0.017309
    H   H78   0.529187  0.176281  0.306390  0.025301
    O   O59   0.892562  0.472432  0.324854  -0.359420
    C   C155  0.850789  0.521058  0.330454  0.150411
    H   H79   0.876142  0.564280  0.337066  -0.009534
    H   H80   0.818530  0.508728  0.351809  0.017306
    H   H81   0.823719  0.529187  0.306390  0.025297
    O   O60   0.527568  0.892562  0.324854  -0.359420
    C   C156  0.478942  0.850789  0.330454  0.150411
    H   H82   0.435720  0.876142  0.337066  -0.009534
    H   H83   0.491272  0.818530  0.351809  0.017305
    H   H84   0.470813  0.823719  0.306390  0.025298
    O   O61   0.107438  0.472432  0.675146  -0.359417
    C   C157  0.149211  0.521058  0.669546  0.150388
    H   H85   0.123858  0.564280  0.662934  -0.009535
    H   H86   0.181470  0.508728  0.648191  0.017314
    H   H87   0.176281  0.529187  0.693610  0.025303
    O   O62   0.472432  0.892562  0.675146  -0.359415
    C   C158  0.521058  0.850789  0.669546  0.150389
    H   H88   0.564280  0.876142  0.662934  -0.009535
    H   H89   0.508728  0.818530  0.648191  0.017313
    H   H90   0.529187  0.823719  0.693610  0.025303
    O   O63   0.892562  0.527568  0.675146  -0.359416
    C   C159  0.850789  0.478942  0.669546  0.150390
    H   H91   0.876142  0.435720  0.662934  -0.009535
    H   H92   0.818530  0.491272  0.648191  0.017313
    H   H93   0.823719  0.470813  0.693610  0.025303
    O   O64   0.527568  0.107438  0.675146  -0.359419
    C   C160  0.478942  0.149211  0.669546  0.150391
    H   H94   0.435720  0.123858  0.662934  -0.009536
    H   H95   0.491272  0.181470  0.648191  0.017313
    H   H96   0.470813  0.176281  0.693610  0.025304
    O   O65   0.813340  0.898468  0.475158  -0.316890
    C   C161  0.809183  0.900707  0.438979  0.039077
    H   H97   0.802308  0.949281  0.430247  0.010262
    H   H98   0.769834  0.871582  0.430089  0.031414
    H   H99   0.852927  0.882838  0.427568  0.061047
    O   O66   0.101532  0.813341  0.475158  -0.316888
    C   C162  0.099294  0.809183  0.438979  0.039078
    H   H100  0.050719  0.802308  0.430247  0.010258
    H   H101  0.128418  0.769834  0.430089  0.031418
    H   H102  0.117163  0.852927  0.427568  0.061047
    O   O67   0.186660  0.101532  0.475158  -0.316893
    C   C163  0.190817  0.099294  0.438979  0.039080
    H   H103  0.197692  0.050719  0.430247  0.010257
    H   H104  0.230166  0.128418  0.430089  0.031416
    H   H105  0.147073  0.117163  0.427568  0.061047
    O   O68   0.898468  0.186660  0.475158  -0.316888
    C   C164  0.900707  0.190817  0.438979  0.039075
    H   H106  0.949281  0.197692  0.430247  0.010264
    H   H107  0.871582  0.230166  0.430089  0.031414
    H   H108  0.882837  0.147073  0.427568  0.061048
    O   O69   0.813340  0.101532  0.524842  -0.316901
    C   C165  0.809183  0.099294  0.561021  0.039059
    H   H109  0.802308  0.050719  0.569753  0.010263
    H   H110  0.769834  0.128418  0.569911  0.031425
    H   H111  0.852927  0.117163  0.572432  0.061054
    O   O70   0.101532  0.186660  0.524842  -0.316902
    C   C166  0.099294  0.190817  0.561021  0.039061
    H   H112  0.050719  0.197692  0.569753  0.010263
    H   H113  0.128418  0.230166  0.569911  0.031425
    H   H114  0.117163  0.147073  0.572432  0.061053
    O   O71   0.186660  0.898469  0.524842  -0.316900
    C   C167  0.190817  0.900707  0.561021  0.039055
    H   H115  0.197692  0.949281  0.569753  0.010268
    H   H116  0.230166  0.871582  0.569911  0.031424
    H   H117  0.147073  0.882838  0.572432  0.061055
    O   O72   0.898468  0.813341  0.524842  -0.316892
    C   C168  0.900707  0.809183  0.561021  0.039048
    H   H118  0.949281  0.802308  0.569753  0.010271
    H   H119  0.871582  0.769834  0.569911  0.031425
    H   H120  0.882837  0.852927  0.572432  0.061055
    O   O73   0.313340  0.398468  0.975158  -0.316886
    C   C169  0.309183  0.400707  0.938979  0.039083
    H   H121  0.302308  0.449281  0.930247  0.010258
    H   H122  0.269834  0.371582  0.930089  0.031406
    H   H123  0.352927  0.382837  0.927568  0.061046
    O   O74   0.601532  0.313340  0.975158  -0.316948
    C   C170  0.599294  0.309183  0.938979  0.039131
    H   H124  0.550719  0.302308  0.930247  0.010240
    H   H125  0.628418  0.269834  0.930089  0.031395
    H   H126  0.617163  0.352927  0.927568  0.061038
    O   O75   0.686660  0.601532  0.975158  -0.316899
    C   C171  0.690817  0.599294  0.938979  0.039105
    H   H127  0.697692  0.550719  0.930247  0.010248
    H   H128  0.730166  0.628418  0.930089  0.031405
    H   H129  0.647073  0.617163  0.927568  0.061041
    O   O76   0.398468  0.686660  0.975158  -0.316895
    C   C172  0.400707  0.690817  0.938979  0.039103
    H   H130  0.449281  0.697692  0.930247  0.010255
    H   H131  0.371582  0.730166  0.930089  0.031402
    H   H132  0.382837  0.647073  0.927568  0.061040
    O   O77   0.313340  0.601532  0.024842  -0.316907
    C   C173  0.309183  0.599294  0.061021  0.039071
    H   H133  0.302308  0.550719  0.069753  0.010259
    H   H134  0.269834  0.628418  0.069911  0.031420
    H   H135  0.352927  0.617163  0.072432  0.061051
    O   O78   0.601532  0.686660  0.024842  -0.316906
    C   C174  0.599294  0.690817  0.061021  0.039069
    H   H136  0.550719  0.697692  0.069753  0.010258
    H   H137  0.628418  0.730166  0.069911  0.031423
    H   H138  0.617163  0.647073  0.072432  0.061051
    O   O79   0.686660  0.398468  0.024842  -0.316903
    C   C175  0.690817  0.400707  0.061021  0.039055
    H   H139  0.697692  0.449281  0.069753  0.010267
    H   H140  0.730166  0.371582  0.069911  0.031423
    H   H141  0.647073  0.382837  0.072432  0.061053
    O   O80   0.398468  0.313340  0.024842  -0.316910
    C   C176  0.400707  0.309183  0.061021  0.039052
    H   H142  0.449281  0.302308  0.069753  0.010270
    H   H143  0.371582  0.269834  0.069911  0.031421
    H   H144  0.382837  0.352927  0.072432  0.061056
