# Generated by REPEAT Assigner based on pymatgen
data_DB0-m2_o1_o2_f0_pcu.sym.12
_audit_creation_date              2022-05-24
_audit_creation_method            REPEAT_Assigner
_cell_length_a                    10.854011
_cell_length_b                    9.399581
_cell_length_c                    15.166239
_cell_angle_alpha                 90.000000
_cell_angle_beta                  90.005941
_cell_angle_gamma                 90.000000
_cell_volume                      1547.307585
_symmetry_space_group_name_H-M    P1
_symmetry_Int_Tables_number       1
loop_
    _symmetry_equiv_pos_site_id
    _symmetry_equiv_pos_as_xyz
    1  x,y,z
loop_
    _atom_site_type_symbol
    _atom_site_label
    _atom_site_fract_x
    _atom_site_fract_y
    _atom_site_fract_z
    _atom_type_partial_charge
    O   O1   0.320816  0.622325  0.503467  -0.580744
    O   O2   0.678785  0.377738  0.497013  -0.579231
    O   O3   0.678875  0.621772  0.502291  -0.574551
    O   O4   0.320709  0.378022  0.496492  -0.567960
    N   N1   0.500037  0.854903  0.499872  -0.045053
    N   N2   0.499547  0.145028  0.500068  0.012305
    C   C1   0.263063  0.500372  0.500163  0.572841
    C   C2   0.736920  0.499564  0.499707  0.574716
    O   O5   0.503356  0.621463  0.371717  -0.624413
    O   O6   0.495079  0.378379  0.627953  -0.636018
    O   O7   0.505063  0.622285  0.627950  -0.617992
    O   O8   0.495978  0.377805  0.371676  -0.633555
    C   C3   0.500124  0.499651  0.329658  0.980392
    C   C4   0.500359  0.500299  0.669776  0.971527
    Cu  Cu1  0.500237  0.642052  0.499798  0.834117
    Cu  Cu2  0.499612  0.357886  0.499923  0.818210
    H   H1   0.361719  0.129674  0.403339  0.118698
    H   H2   0.642851  0.869976  0.593243  0.120833
    H   H3   0.640885  0.130928  0.595429  0.110793
    H   H4   0.363320  0.869309  0.401466  0.105891
    C   C5   0.423489  0.072815  0.446140  -0.047860
    C   C6   0.578544  0.926893  0.552007  -0.006542
    C   C7   0.578022  0.073705  0.552595  -0.031423
    C   C8   0.423857  0.926341  0.445722  0.016542
    C   C9   0.064215  0.373464  0.497272  -0.119300
    C   C10  0.936008  0.626378  0.502599  -0.126602
    C   C11  0.937150  0.372754  0.497056  -0.124055
    C   C12  0.063056  0.627132  0.502754  -0.112221
    C   C13  0.542332  0.616878  0.094272  -0.610779
    C   C14  0.533647  0.379853  0.905218  -0.562062
    C   C15  0.465752  0.620577  0.905133  -0.599318
    C   C16  0.456595  0.384103  0.094061  -0.564582
    H   H5   0.577928  0.708484  0.059280  0.159754
    H   H6   0.562196  0.285309  0.940245  0.145858
    H   H7   0.434951  0.714111  0.940008  0.154801
    H   H8   0.418541  0.294093  0.059055  0.147692
    C   C17  0.543929  0.616738  0.185341  0.712780
    C   C18  0.535300  0.379458  0.814279  0.637107
    C   C19  0.465251  0.621222  0.814200  0.696438
    C   C20  0.455972  0.383454  0.185082  0.636525
    C   C21  0.500286  0.499895  0.232078  -0.693456
    C   C22  0.500561  0.500339  0.767367  -0.682179
    H   H9   0.112613  0.272912  0.495766  0.112166
    H   H10  0.887853  0.726972  0.505118  0.112281
    H   H11  0.889875  0.271761  0.495256  0.112521
    H   H12  0.110649  0.727962  0.505435  0.109167
    C   C23  0.499452  0.500564  0.048084  0.357161
    C   C24  0.499565  0.500237  0.951184  0.350186
    C   C25  0.872062  0.499341  0.499596  0.039721
    C   C26  0.127844  0.500603  0.499941  0.033216
    N   N3   0.594493  0.736818  0.229726  -0.694103
    H   H13  0.684761  0.750128  0.207308  0.258465
    H   H14  0.543729  0.826079  0.210663  0.258856
    N   N4   0.576519  0.254394  0.770219  -0.615080
    H   H15  0.518783  0.170957  0.789319  0.245966
    H   H16  0.665434  0.232264  0.792789  0.233776
    N   N5   0.423913  0.746075  0.769903  -0.678131
    H   H17  0.334003  0.766805  0.790677  0.257029
    H   H18  0.480083  0.830313  0.789828  0.250854
    N   N6   0.404972  0.263538  0.229341  -0.603734
    H   H19  0.454056  0.173675  0.209448  0.240784
    H   H20  0.313929  0.252032  0.208466  0.230977
