# Generated by REPEAT Assigner based on pymatgen
data_DB0-m2_o1_o2_f0_pcu.sym.16_sqe
_audit_creation_date              2022-05-24
_audit_creation_method            REPEAT_Assigner
_cell_length_a                    10.850754
_cell_length_b                    9.430762
_cell_length_c                    15.287732
_cell_angle_alpha                 90.000000
_cell_angle_beta                  90.005892
_cell_angle_gamma                 90.000000
_cell_volume                      1564.407070
_symmetry_space_group_name_H-M    P1
_symmetry_Int_Tables_number       1
loop_
    _symmetry_equiv_pos_site_id
    _symmetry_equiv_pos_as_xyz
    1  x,y,z
loop_
    _atom_site_type_symbol
    _atom_site_label
    _atom_site_fract_x
    _atom_site_fract_y
    _atom_site_fract_z
    _atom_type_partial_charge
    O   O1   0.314011  0.619265  0.493590  -0.623641
    O   O2   0.671929  0.376995  0.504575  -0.599129
    O   O3   0.672079  0.620401  0.499973  -0.584980
    O   O4   0.313820  0.375901  0.499589  -0.575770
    N   N1   0.492863  0.852249  0.500626  -0.003875
    N   N2   0.493577  0.144107  0.498536  -0.005976
    C   C1   0.255918  0.497551  0.495735  0.697760
    C   C2   0.729848  0.498668  0.502355  0.666862
    O   O5   0.502053  0.621115  0.372958  -0.478624
    O   O6   0.484907  0.375537  0.626118  -0.482412
    O   O7   0.492455  0.617636  0.626941  -0.436674
    O   O8   0.492110  0.378292  0.371820  -0.569337
    C   C3   0.501529  0.500363  0.330601  0.562020
    C   C4   0.485642  0.496353  0.668866  0.499045
    Cu  Cu1  0.493023  0.639842  0.500112  0.727547
    Cu  Cu2  0.492890  0.356461  0.498919  0.904671
    H   H1   0.336591  0.125472  0.418086  0.107449
    H   H2   0.649593  0.867974  0.581536  0.165214
    H   H3   0.647570  0.130150  0.582062  0.078551
    H   H4   0.340469  0.868709  0.415980  0.135425
    C   C5   0.407163  0.071103  0.454271  -0.004462
    C   C6   0.579340  0.924793  0.545398  -0.051599
    C   C7   0.578799  0.072101  0.544947  0.011464
    C   C8   0.408096  0.924737  0.454392  0.000773
    C   C9   0.056378  0.371463  0.501191  -0.100733
    C   C10  0.929387  0.624962  0.498140  -0.079759
    C   C11  0.929369  0.371986  0.503438  -0.090979
    C   C12  0.056446  0.624183  0.495828  -0.074824
    C   C13  0.465681  0.621925  0.096769  -0.136691
    C   C14  0.467428  0.374515  0.905553  -0.115425
    C   C15  0.492373  0.622986  0.904180  -0.213746
    C   C16  0.521725  0.379496  0.095173  -0.180328
    H   H5   0.439243  0.719488  0.065343  0.137549
    H   H6   0.453319  0.274941  0.938678  0.095583
    H   H7   0.506749  0.724083  0.935236  0.113501
    H   H8   0.548778  0.283842  0.061788  0.122145
    C   C17  0.482944  0.626258  0.186005  -0.210156
    C   C18  0.470456  0.371602  0.815229  -0.028799
    C   C19  0.487151  0.623080  0.814026  -0.020195
    C   C20  0.530545  0.379392  0.185265  -0.111432
    C   C21  0.507315  0.502530  0.233062  0.076897
    C   C22  0.479625  0.496573  0.766760  -0.066784
    H   H9   0.104019  0.271219  0.502821  0.114652
    H   H10  0.881955  0.725422  0.496987  0.092053
    H   H11  0.881520  0.271312  0.506406  0.108005
    H   H12  0.104908  0.724299  0.493200  0.104184
    C   C23  0.486766  0.499458  0.049380  0.147444
    C   C24  0.481169  0.499245  0.951962  0.057866
    C   C25  0.865095  0.498469  0.501718  -0.034038
    C   C26  0.120801  0.497798  0.497012  -0.054047
    C   C27  0.485779  0.767871  0.225259  0.718224
    O   O9   0.398017  0.847362  0.216808  -0.546597
    C   C28  0.605859  0.825228  0.257407  -0.404923
    H   H13  0.673893  0.737988  0.263568  0.049860
    H   H14  0.593302  0.878044  0.321650  0.118631
    H   H15  0.641719  0.902618  0.209232  0.135442
    C   C29  0.470198  0.230785  0.775942  0.568637
    O   O10  0.381692  0.189412  0.733930  -0.499566
    C   C30  0.573351  0.132735  0.797228  -0.406858
    H   H16  0.647711  0.192579  0.830502  0.056803
    H   H17  0.610755  0.086695  0.736197  0.175373
    H   H18  0.539958  0.048623  0.841852  0.165526
    C   C31  0.490853  0.762001  0.772519  0.667572
    O   O11  0.589864  0.818261  0.758253  -0.570331
    C   C32  0.373353  0.832784  0.746753  -0.423782
    H   H19  0.295820  0.757554  0.755230  0.075444
    H   H20  0.378416  0.865701  0.677372  0.141763
    H   H21  0.356668  0.926688  0.788601  0.134130
    C   C33  0.574135  0.247751  0.225565  0.565948
    O   O12  0.521555  0.136723  0.209002  -0.436389
    C   C34  0.690760  0.244959  0.277385  -0.335773
    H   H22  0.729055  0.353581  0.283934  0.070780
    H   H23  0.758957  0.177190  0.243261  0.090776
    H   H24  0.672756  0.199538  0.343008  0.097061
