# Generated by REPEAT Assigner based on pymatgen
data_DB0-m2_o1_o3_f0_nbo.sym.6_sqe
_audit_creation_date              2022-05-24
_audit_creation_method            REPEAT_Assigner
_cell_length_a                    21.505280
_cell_length_b                    21.505280
_cell_length_c                    38.511933
_cell_angle_alpha                 90.000000
_cell_angle_beta                  90.000000
_cell_angle_gamma                 90.000000
_cell_volume                      17810.886118
_symmetry_space_group_name_H-M    P1
_symmetry_Int_Tables_number       1
loop_
    _symmetry_equiv_pos_site_id
    _symmetry_equiv_pos_as_xyz
    1  x,y,z
loop_
    _atom_site_type_symbol
    _atom_site_label
    _atom_site_fract_x
    _atom_site_fract_y
    _atom_site_fract_z
    _atom_type_partial_charge
    O   O1    0.588462  0.051057  0.510067  -0.612498
    O   O2    0.948943  0.588462  0.510067  -0.612434
    O   O3    0.411538  0.948943  0.510067  -0.612487
    O   O4    0.051058  0.411538  0.510067  -0.612349
    O   O5    0.588462  0.948943  0.489933  -0.612485
    O   O6    0.948943  0.411538  0.489933  -0.612435
    O   O7    0.411538  0.051057  0.489933  -0.612499
    O   O8    0.051058  0.588462  0.489933  -0.612346
    O   O9    0.088462  0.551057  0.010067  -0.612508
    O   O10   0.448943  0.088462  0.010067  -0.612500
    O   O11   0.911538  0.448943  0.010067  -0.612495
    O   O12   0.551057  0.911538  0.010067  -0.612503
    O   O13   0.088462  0.448943  0.989933  -0.612501
    O   O14   0.448943  0.911538  0.989933  -0.612496
    O   O15   0.911538  0.551057  0.989933  -0.612504
    O   O16   0.551057  0.088462  0.989933  -0.612508
    C   C1    0.617622  0.000000  0.500000  0.758761
    C   C2    0.000000  0.617622  0.500000  0.758566
    C   C3    0.382378  0.000000  0.500000  0.758758
    C   C4    0.000000  0.382378  0.500000  0.758565
    C   C5    0.117622  0.500000  0.000000  0.758792
    C   C6    0.500000  0.117622  0.000000  0.758792
    C   C7    0.882378  0.500000  0.000000  0.758789
    C   C8    0.500000  0.882378  0.000000  0.758792
    O   O17   0.481983  0.051098  0.549506  -0.627912
    O   O18   0.948903  0.481983  0.549506  -0.628043
    O   O19   0.518017  0.948903  0.549506  -0.628068
    O   O20   0.051098  0.518017  0.549506  -0.627902
    O   O21   0.481983  0.948903  0.450494  -0.628064
    O   O22   0.948903  0.518017  0.450494  -0.628033
    O   O23   0.518017  0.051098  0.450494  -0.627905
    O   O24   0.051098  0.481983  0.450494  -0.627898
    O   O25   0.981983  0.551098  0.049506  -0.627905
    O   O26   0.448903  0.981983  0.049506  -0.628069
    O   O27   0.018017  0.448903  0.049506  -0.628066
    O   O28   0.551098  0.018017  0.049506  -0.627906
    O   O29   0.981983  0.448903  0.950494  -0.628071
    O   O30   0.448903  0.018017  0.950494  -0.628069
    O   O31   0.018017  0.551098  0.950494  -0.627907
    O   O32   0.551098  0.981983  0.950494  -0.627911
    C   C9    0.500000  0.000000  0.565730  0.748532
    C   C10   0.000000  0.500000  0.565730  0.748414
    C   C11   0.500000  0.000000  0.434270  0.748511
    C   C12   0.000000  0.500000  0.434270  0.748395
    C   C13   0.000000  0.500000  0.065730  0.748516
    C   C14   0.500000  0.000000  0.065730  0.748514
    C   C15   0.000000  0.500000  0.934270  0.748486
    C   C16   0.500000  0.000000  0.934270  0.748485
    Cu  Cu1   0.500000  0.060630  0.500000  0.995933
    Cu  Cu2   0.939370  0.500000  0.500000  0.995909
    Cu  Cu3   0.500000  0.939370  0.500000  0.995953
    Cu  Cu4   0.060630  0.500000  0.500000  0.995942
    Cu  Cu5   0.000000  0.560630  0.000000  0.995939
    Cu  Cu6   0.439370  0.000000  0.000000  0.995965
    Cu  Cu7   0.000000  0.439370  0.000000  0.995964
    Cu  Cu8   0.560630  0.000000  0.000000  0.995941
    C   C17   0.509310  0.945300  0.878367  0.031744
    C   C18   0.054700  0.509310  0.878367  0.031728
    C   C19   0.490690  0.054700  0.878367  0.031694
    C   C20   0.945300  0.490690  0.878367  0.031701
    C   C21   0.509310  0.054700  0.121633  0.031733
    C   C22   0.054700  0.490690  0.121633  0.031694
    C   C23   0.490690  0.945300  0.121633  0.031706
    C   C24   0.945300  0.509310  0.121633  0.031740
    C   C25   0.009310  0.445300  0.378367  0.031737
    C   C26   0.554700  0.009310  0.378367  0.031730
    C   C27   0.990690  0.554700  0.378367  0.031677
    C   C28   0.445300  0.990690  0.378367  0.031698
    C   C29   0.009310  0.554700  0.621633  0.031734
    C   C30   0.554700  0.990690  0.621633  0.031699
    C   C31   0.990690  0.445300  0.621633  0.031690
    C   C32   0.445300  0.009310  0.621633  0.031743
    C   C33   0.508836  0.945241  0.842582  -0.118252
    C   C34   0.054759  0.508836  0.842582  -0.118224
    C   C35   0.491165  0.054759  0.842582  -0.118219
    C   C36   0.945241  0.491165  0.842582  -0.118230
    C   C37   0.508836  0.054759  0.157418  -0.118225
    C   C38   0.054759  0.491165  0.157418  -0.118220
    C   C39   0.491165  0.945241  0.157418  -0.118228
    C   C40   0.945241  0.508836  0.157418  -0.118242
    C   C41   0.008836  0.445241  0.342582  -0.118259
    C   C42   0.554759  0.008836  0.342582  -0.118223
    C   C43   0.991165  0.554759  0.342582  -0.118210
    C   C44   0.445241  0.991165  0.342582  -0.118225
    C   C45   0.008836  0.554759  0.657418  -0.118238
    C   C46   0.554759  0.991165  0.657418  -0.118221
    C   C47   0.991165  0.445241  0.657418  -0.118221
    C   C48   0.445241  0.008836  0.657418  -0.118242
    H   H1    0.513954  0.901428  0.829174  0.103007
    H   H2    0.098572  0.513954  0.829174  0.103010
    H   H3    0.486046  0.098572  0.829174  0.103046
    H   H4    0.901428  0.486046  0.829174  0.103038
    H   H5    0.513954  0.098572  0.170826  0.103011
    H   H6    0.098572  0.486046  0.170826  0.103046
    H   H7    0.486046  0.901428  0.170826  0.103037
    H   H8    0.901428  0.513954  0.170826  0.103010
    H   H9    0.013954  0.401428  0.329174  0.103008
    H   H10   0.598572  0.013954  0.329174  0.103012
    H   H11   0.986046  0.598572  0.329174  0.103048
    H   H12   0.401428  0.986046  0.329174  0.103036
    H   H13   0.013954  0.598572  0.670826  0.103014
    H   H14   0.598572  0.986046  0.670826  0.103048
    H   H15   0.986046  0.401428  0.670826  0.103040
    H   H16   0.401428  0.013954  0.670826  0.103011
    C   C49   0.500000  0.000000  0.824360  -0.000200
    C   C50   0.000000  0.500000  0.824360  -0.000205
    C   C51   0.500000  0.000000  0.175640  -0.000204
    C   C52   0.000000  0.500000  0.175640  -0.000168
    C   C53   0.000000  0.500000  0.324360  -0.000208
    C   C54   0.500000  0.000000  0.324360  -0.000205
    C   C55   0.000000  0.500000  0.675640  -0.000216
    C   C56   0.500000  0.000000  0.675640  -0.000171
    C   C57   0.500000  0.000000  0.896366  0.014456
    C   C58   0.000000  0.500000  0.896366  0.014457
    C   C59   0.500000  0.000000  0.103634  0.014435
    C   C60   0.000000  0.500000  0.103634  0.014431
    C   C61   0.000000  0.500000  0.396366  0.014508
    C   C62   0.500000  0.000000  0.396366  0.014441
    C   C63   0.000000  0.500000  0.603634  0.014497
    C   C64   0.500000  0.000000  0.603634  0.014423
    C   C65   0.460749  0.039076  0.767892  -0.160434
    C   C66   0.960924  0.460749  0.767892  -0.160284
    C   C67   0.539251  0.960924  0.767892  -0.160296
    C   C68   0.039076  0.539251  0.767892  -0.160340
    C   C69   0.460749  0.960924  0.232108  -0.160303
    C   C70   0.960924  0.539251  0.232108  -0.160153
    C   C71   0.539251  0.039076  0.232108  -0.160355
    C   C72   0.039076  0.460749  0.232108  -0.160336
    C   C73   0.960749  0.539076  0.267892  -0.160449
    C   C74   0.460924  0.960749  0.267892  -0.160293
    C   C75   0.039251  0.460924  0.267892  -0.160305
    C   C76   0.539076  0.039251  0.267892  -0.160350
    C   C77   0.960749  0.460924  0.732108  -0.160320
    C   C78   0.460924  0.039251  0.732108  -0.160167
    C   C79   0.039251  0.539076  0.732108  -0.160368
    C   C80   0.539076  0.960749  0.732108  -0.160347
    H   H17   0.428627  0.069330  0.781283  0.127070
    H   H18   0.930670  0.428627  0.781283  0.127049
    H   H19   0.571374  0.930670  0.781283  0.127120
    H   H20   0.069330  0.571374  0.781283  0.127118
    H   H21   0.428627  0.930670  0.218717  0.127053
    H   H22   0.930670  0.571374  0.218717  0.127065
    H   H23   0.571374  0.069330  0.218717  0.127122
    H   H24   0.069330  0.428627  0.218717  0.127049
    H   H25   0.928627  0.569330  0.281283  0.127073
    H   H26   0.430670  0.928627  0.281283  0.127051
    H   H27   0.071374  0.430670  0.281283  0.127122
    H   H28   0.569330  0.071374  0.281283  0.127119
    H   H29   0.928627  0.430670  0.718717  0.127057
    H   H30   0.430670  0.071374  0.718717  0.127067
    H   H31   0.071374  0.569330  0.718717  0.127124
    H   H32   0.569330  0.928627  0.718717  0.127051
    C   C81   0.500000  0.000000  0.713868  0.143583
    C   C82   0.000000  0.500000  0.713868  0.143680
    C   C83   0.500000  0.000000  0.286132  0.143657
    C   C84   0.000000  0.500000  0.286132  0.143697
    C   C85   0.000000  0.500000  0.213868  0.143572
    C   C86   0.500000  0.000000  0.213868  0.143661
    C   C87   0.000000  0.500000  0.786132  0.143652
    C   C88   0.500000  0.000000  0.786132  0.143685
    C   C89   0.718026  0.954406  0.482289  0.076055
    C   C90   0.045594  0.718026  0.482289  0.075997
    C   C91   0.281974  0.045594  0.482289  0.076033
    C   C92   0.954406  0.281974  0.482289  0.076041
    C   C93   0.718026  0.045594  0.517711  0.076034
    C   C94   0.045594  0.281974  0.517711  0.075999
    C   C95   0.281974  0.954406  0.517711  0.076053
    C   C96   0.954406  0.718026  0.517711  0.076039
    C   C97   0.218026  0.454406  0.982289  0.076053
    C   C98   0.545594  0.218026  0.982289  0.076031
    C   C99   0.781974  0.545594  0.982289  0.076038
    C   C100  0.454406  0.781974  0.982289  0.076060
    C   C101  0.218026  0.545594  0.017711  0.076028
    C   C102  0.545594  0.781974  0.017711  0.076036
    C   C103  0.781974  0.454406  0.017711  0.076058
    C   C104  0.454406  0.218026  0.017711  0.076052
    H   H33   0.693720  0.918502  0.468114  0.064212
    H   H34   0.081498  0.693720  0.468114  0.064237
    H   H35   0.306280  0.081498  0.468114  0.064233
    H   H36   0.918502  0.306280  0.468114  0.064215
    H   H37   0.693720  0.081498  0.531886  0.064230
    H   H38   0.081498  0.306280  0.531886  0.064239
    H   H39   0.306280  0.918502  0.531886  0.064214
    H   H40   0.918502  0.693720  0.531886  0.064213
    H   H41   0.193720  0.418502  0.968114  0.064213
    H   H42   0.581498  0.193720  0.968114  0.064230
    H   H43   0.806280  0.581498  0.968114  0.064230
    H   H44   0.418502  0.806280  0.968114  0.064212
    H   H45   0.193720  0.581498  0.031886  0.064232
    H   H46   0.581498  0.806280  0.031886  0.064230
    H   H47   0.806280  0.418502  0.031886  0.064212
    H   H48   0.418502  0.193720  0.031886  0.064213
    C   C105  0.782106  0.954831  0.481995  -0.140669
    C   C106  0.045169  0.782106  0.481995  -0.140652
    C   C107  0.217894  0.045169  0.481995  -0.140684
    C   C108  0.954831  0.217894  0.481995  -0.140678
    C   C109  0.782106  0.045169  0.518005  -0.140676
    C   C110  0.045169  0.217894  0.518005  -0.140669
    C   C111  0.217894  0.954831  0.518005  -0.140677
    C   C112  0.954831  0.782106  0.518005  -0.140663
    C   C113  0.282106  0.454831  0.981995  -0.140664
    C   C114  0.545169  0.282106  0.981995  -0.140666
    C   C115  0.717894  0.545169  0.981995  -0.140681
    C   C116  0.454831  0.717894  0.981995  -0.140679
    C   C117  0.282106  0.545169  0.018005  -0.140664
    C   C118  0.545169  0.717894  0.018005  -0.140681
    C   C119  0.717894  0.454831  0.018005  -0.140677
    C   C120  0.454831  0.282106  0.018005  -0.140663
    C   C121  0.814210  0.000000  0.500000  0.227607
    C   C122  0.000000  0.814210  0.500000  0.227582
    C   C123  0.185790  0.000000  0.500000  0.227628
    C   C124  0.000000  0.185790  0.500000  0.227610
    C   C125  0.314210  0.500000  0.000000  0.227597
    C   C126  0.500000  0.314210  0.000000  0.227597
    C   C127  0.685790  0.500000  0.000000  0.227617
    C   C128  0.500000  0.685790  0.000000  0.227619
    C   C129  0.685684  0.000000  0.500000  -0.124372
    C   C130  0.000000  0.685684  0.500000  -0.124296
    C   C131  0.314316  0.000000  0.500000  -0.124370
    C   C132  0.000000  0.314316  0.500000  -0.124297
    C   C133  0.185684  0.500000  0.000000  -0.124379
    C   C134  0.500000  0.185684  0.000000  -0.124380
    C   C135  0.814316  0.500000  0.000000  -0.124386
    C   C136  0.500000  0.814316  0.000000  -0.124388
    O   O33   0.016563  0.088999  0.471268  -0.580193
    O   O34   0.911001  0.016563  0.471268  -0.580193
    O   O35   0.983437  0.911001  0.471268  -0.580192
    O   O36   0.088999  0.983437  0.471268  -0.580191
    O   O37   0.016563  0.911001  0.528732  -0.580190
    O   O38   0.911001  0.983437  0.528732  -0.580189
    O   O39   0.983437  0.088999  0.528732  -0.580190
    O   O40   0.088999  0.016563  0.528732  -0.580191
    O   O41   0.516563  0.588999  0.971268  -0.580210
    O   O42   0.411001  0.516563  0.971268  -0.580215
    O   O43   0.483437  0.411001  0.971268  -0.580215
    O   O44   0.588999  0.483437  0.971268  -0.580211
    O   O45   0.516563  0.411001  0.028732  -0.580201
    O   O46   0.411001  0.483437  0.028732  -0.580202
    O   O47   0.483437  0.588999  0.028732  -0.580197
    O   O48   0.588999  0.516563  0.028732  -0.580197
    C   C137  0.000000  0.118012  0.500000  0.681730
    C   C138  0.881988  0.000000  0.500000  0.681739
    C   C139  0.000000  0.881988  0.500000  0.681749
    C   C140  0.118012  0.000000  0.500000  0.681719
    C   C141  0.500000  0.618012  0.000000  0.681747
    C   C142  0.381988  0.500000  0.000000  0.681763
    C   C143  0.500000  0.381988  0.000000  0.681763
    C   C144  0.618012  0.500000  0.000000  0.681748
    Cu  Cu9   0.000000  0.000000  0.466042  0.951471
    Cu  Cu10  0.000000  0.000000  0.533958  0.951463
    Cu  Cu11  0.500000  0.500000  0.966042  0.951498
    Cu  Cu12  0.500000  0.500000  0.033958  0.951478
    Cl  Cl1   0.518243  0.874757  0.900616  -0.074745
    Cl  Cl2   0.125243  0.518243  0.900616  -0.074749
    Cl  Cl3   0.481757  0.125243  0.900616  -0.074728
    Cl  Cl4   0.874757  0.481757  0.900616  -0.074723
    Cl  Cl5   0.518243  0.125243  0.099384  -0.074749
    Cl  Cl6   0.125243  0.481757  0.099384  -0.074726
    Cl  Cl7   0.481757  0.874757  0.099384  -0.074722
    Cl  Cl8   0.874757  0.518243  0.099384  -0.074744
    Cl  Cl9   0.018243  0.374757  0.400616  -0.074735
    Cl  Cl10  0.625243  0.018243  0.400616  -0.074749
    Cl  Cl11  0.981757  0.625243  0.400616  -0.074733
    Cl  Cl12  0.374757  0.981757  0.400616  -0.074722
    Cl  Cl13  0.018243  0.625243  0.599384  -0.074742
    Cl  Cl14  0.625243  0.981757  0.599384  -0.074729
    Cl  Cl15  0.981757  0.374757  0.599384  -0.074730
    Cl  Cl16  0.374757  0.018243  0.599384  -0.074747
    Cl  Cl17  0.822445  0.896649  0.459512  -0.048371
    Cl  Cl18  0.103351  0.822445  0.459512  -0.048374
    Cl  Cl19  0.177555  0.103351  0.459512  -0.048369
    Cl  Cl20  0.896649  0.177555  0.459512  -0.048367
    Cl  Cl21  0.822445  0.103351  0.540488  -0.048370
    Cl  Cl22  0.103351  0.177555  0.540488  -0.048368
    Cl  Cl23  0.177555  0.896649  0.540488  -0.048369
    Cl  Cl24  0.896649  0.822445  0.540488  -0.048372
    Cl  Cl25  0.322445  0.396649  0.959512  -0.048374
    Cl  Cl26  0.603351  0.322445  0.959512  -0.048374
    Cl  Cl27  0.677555  0.603351  0.959512  -0.048369
    Cl  Cl28  0.396649  0.677555  0.959512  -0.048369
    Cl  Cl29  0.322445  0.603351  0.040488  -0.048374
    Cl  Cl30  0.603351  0.677555  0.040488  -0.048368
    Cl  Cl31  0.677555  0.396649  0.040488  -0.048369
    Cl  Cl32  0.396649  0.322445  0.040488  -0.048374
