# Generated by REPEAT Assigner based on pymatgen
data_DB0-m2_o1_o3_f0_nbo.sym.108
_audit_creation_date              2022-05-24
_audit_creation_method            REPEAT_Assigner
_cell_length_a                    21.511024
_cell_length_b                    21.511024
_cell_length_c                    38.490877
_cell_angle_alpha                 90.000000
_cell_angle_beta                  90.000000
_cell_angle_gamma                 90.000000
_cell_volume                      17810.658091
_symmetry_space_group_name_H-M    P1
_symmetry_Int_Tables_number       1
loop_
    _symmetry_equiv_pos_site_id
    _symmetry_equiv_pos_as_xyz
    1  x,y,z
loop_
    _atom_site_type_symbol
    _atom_site_label
    _atom_site_fract_x
    _atom_site_fract_y
    _atom_site_fract_z
    _atom_type_partial_charge
    C   C1    0.617997  0.999999  0.500000  0.766190
    C   C2    0.000000  0.500000  0.565980  0.561041
    C   C3    0.450297  0.781437  0.985751  0.303649
    C   C4    0.218563  0.549702  0.014249  0.303513
    C   C5    0.549702  0.781437  0.014249  0.303496
    C   C6    0.781437  0.450297  0.014249  0.303599
    C   C7    0.450297  0.218563  0.014249  0.303531
    C   C8    0.782908  0.951553  0.484702  0.101773
    C   C9    0.048448  0.782908  0.484702  0.101787
    C   C10   0.217092  0.048448  0.484702  0.101637
    C   C11   0.951553  0.217092  0.484702  0.101693
    C   C12   0.782907  0.048448  0.515298  0.101816
    C   C13   0.500000  0.000000  0.434021  0.561041
    C   C14   0.048448  0.217092  0.515298  0.101713
    C   C15   0.217092  0.951552  0.515298  0.101634
    C   C16   0.951552  0.782908  0.515298  0.101770
    C   C17   0.282907  0.451552  0.984702  0.101714
    C   C18   0.548447  0.282908  0.984702  0.101622
    C   C19   0.717092  0.548447  0.984702  0.101879
    C   C20   0.451552  0.717092  0.984702  0.101671
    C   C21   0.282908  0.548447  0.015298  0.101687
    C   C22   0.548447  0.717092  0.015298  0.101663
    C   C23   0.717093  0.451552  0.015298  0.101691
    C   C24   0.999999  0.500000  0.434021  0.560759
    C   C25   0.451552  0.282907  0.015298  0.101828
    C   C26   0.814627  0.999999  0.500000  -0.099298
    C   C27   0.000000  0.814627  0.500000  -0.099340
    C   C28   0.185373  0.000000  0.500000  -0.099155
    C   C29   0.000000  0.185373  0.500000  -0.099174
    C   C30   0.314627  0.500001  0.000000  -0.099262
    C   C31   0.500001  0.314627  0.000000  -0.099272
    C   C32   0.685373  0.500001  0.000000  -0.099280
    C   C33   0.500001  0.685373  0.000000  -0.099146
    C   C34   0.686270  0.000000  0.499999  -0.364625
    C   C35   0.000000  0.500000  0.065980  0.560846
    C   C36   0.000000  0.686270  0.500000  -0.364677
    C   C37   0.313730  0.000000  0.500000  -0.364848
    C   C38   0.000000  0.313730  0.500000  -0.364612
    C   C39   0.186270  0.500001  0.000000  -0.364777
    C   C40   0.500001  0.186270  0.999999  -0.364862
    C   C41   0.813730  0.500001  0.000000  -0.364756
    C   C42   0.500000  0.813730  0.000000  -0.364813
    C   C43   0.000000  0.117657  0.500000  0.517855
    C   C44   0.882343  0.000000  0.500000  0.518007
    C   C45   0.000000  0.882342  0.500000  0.517965
    C   C46   0.500001  0.000000  0.065980  0.560799
    C   C47   0.117658  0.000000  0.500000  0.517842
    C   C48   0.500000  0.617658  0.000000  0.517885
    C   C49   0.382343  0.500000  0.000000  0.517862
    C   C50   0.500000  0.382343  0.000000  0.517887
    C   C51   0.617658  0.500000  0.000000  0.517865
    C   C52   0.680736  0.849632  0.488516  0.717587
    C   C53   0.665766  0.789009  0.471698  -0.496786
    C   C54   0.150368  0.680736  0.488517  0.717825
    C   C55   0.210992  0.665765  0.471698  -0.496773
    C   C56   0.319264  0.150369  0.488517  0.717877
    C   C57   0.000000  0.500000  0.934021  0.560755
    C   C58   0.334234  0.210992  0.471698  -0.496777
    C   C59   0.849632  0.319264  0.488516  0.717660
    C   C60   0.789008  0.334234  0.471698  -0.496712
    C   C61   0.680736  0.150368  0.511483  0.717675
    C   C62   0.665766  0.210992  0.528302  -0.496723
    C   C63   0.150368  0.319264  0.511484  0.717689
    C   C64   0.210991  0.334234  0.528302  -0.496891
    C   C65   0.319265  0.849632  0.511483  0.717914
    C   C66   0.334235  0.789008  0.528302  -0.496797
    C   C67   0.849631  0.680736  0.511483  0.717793
    C   C68   0.500000  0.000000  0.934021  0.560697
    C   C69   0.789008  0.665766  0.528302  -0.496778
    C   C70   0.180736  0.349632  0.988517  0.717805
    C   C71   0.165765  0.289008  0.971698  -0.496807
    C   C72   0.650369  0.180736  0.988517  0.717827
    C   C73   0.710992  0.165766  0.971699  -0.496843
    C   C74   0.819264  0.650369  0.988516  0.717724
    C   C75   0.834234  0.710992  0.971698  -0.496844
    C   C76   0.349632  0.819264  0.988517  0.717729
    C   C77   0.289008  0.834234  0.971698  -0.496838
    C   C78   0.180736  0.650369  0.011483  0.717735
    C   C79   0.555429  0.002577  0.877895  -0.125451
    C   C80   0.165766  0.710992  0.028302  -0.496767
    C   C81   0.650369  0.819264  0.011483  0.717668
    C   C82   0.710992  0.834234  0.028302  -0.496826
    C   C83   0.819264  0.349632  0.011484  0.717607
    C   C84   0.834235  0.289008  0.028302  -0.496858
    C   C85   0.349632  0.180736  0.011483  0.717774
    C   C86   0.289008  0.165765  0.028302  -0.496709
    C   C87   0.830463  0.908895  0.436056  0.693107
    C   C88   0.852691  0.854798  0.415265  -0.579042
    C   C89   0.091105  0.830462  0.436057  0.693129
    C   C90   0.997424  0.555430  0.877895  -0.125294
    C   C91   0.145203  0.852691  0.415266  -0.579093
    C   C92   0.169537  0.091105  0.436057  0.693231
    C   C93   0.147309  0.145202  0.415266  -0.579083
    C   C94   0.908895  0.169537  0.436057  0.693168
    C   C95   0.854798  0.147309  0.415265  -0.579130
    C   C96   0.830463  0.091105  0.563943  0.693246
    C   C97   0.852691  0.145202  0.584734  -0.579056
    C   C98   0.091105  0.169537  0.563943  0.692990
    C   C99   0.145202  0.147309  0.584735  -0.579025
    C   C100  0.169538  0.908895  0.563943  0.693349
    C   C101  0.444570  0.997424  0.877895  -0.125354
    C   C102  0.147309  0.854798  0.584735  -0.579289
    C   C103  0.908895  0.830462  0.563943  0.693474
    C   C104  0.854797  0.852691  0.584734  -0.579354
    C   C105  0.330462  0.408895  0.936057  0.693107
    C   C106  0.352691  0.354798  0.915265  -0.578943
    C   C107  0.591106  0.330463  0.936057  0.693171
    C   C108  0.645203  0.352691  0.915266  -0.579079
    C   C109  0.669537  0.591105  0.936056  0.693133
    C   C110  0.647309  0.645202  0.915265  -0.578917
    C   C111  0.408895  0.669537  0.936057  0.693065
    C   C112  0.000000  0.617997  0.500000  0.766279
    C   C113  0.002577  0.444571  0.877895  -0.125452
    C   C114  0.354798  0.647309  0.915265  -0.578874
    C   C115  0.330463  0.591105  0.063943  0.693308
    C   C116  0.352691  0.645202  0.084734  -0.579199
    C   C117  0.591105  0.669537  0.063943  0.693142
    C   C118  0.645202  0.647309  0.084734  -0.579063
    C   C119  0.669538  0.408896  0.063943  0.693063
    C   C120  0.647309  0.354798  0.084735  -0.578969
    C   C121  0.408895  0.330462  0.063943  0.693460
    C   C122  0.354798  0.352691  0.084734  -0.579084
    C   C123  0.555428  0.997423  0.122104  -0.125550
    C   C124  0.997423  0.444572  0.122105  -0.125406
    C   C125  0.444571  0.002576  0.122105  -0.125280
    C   C126  0.002576  0.555430  0.122105  -0.125255
    C   C127  0.055430  0.502576  0.377895  -0.125228
    C   C128  0.497424  0.055431  0.377895  -0.125128
    C   C129  0.944571  0.497423  0.377895  -0.125381
    C   C130  0.502577  0.944571  0.377895  -0.125326
    C   C131  0.055428  0.497423  0.622105  -0.125358
    C   C132  0.382003  0.000000  0.500000  0.766405
    C   C133  0.497424  0.944571  0.622105  -0.125486
    C   C134  0.944570  0.502576  0.622105  -0.125345
    C   C135  0.502577  0.055428  0.622105  -0.125556
    C   C136  0.555418  0.001781  0.842088  -0.161099
    C   C137  0.998219  0.555419  0.842088  -0.161194
    C   C138  0.444582  0.998219  0.842088  -0.161123
    C   C139  0.001782  0.444582  0.842088  -0.161073
    C   C140  0.555419  0.998218  0.157912  -0.161125
    C   C141  0.998218  0.444582  0.157912  -0.161104
    C   C142  0.444580  0.001780  0.157912  -0.161257
    C   C143  0.999999  0.382003  0.500000  0.766231
    C   C144  0.001780  0.555420  0.157912  -0.161240
    C   C145  0.055418  0.501780  0.342088  -0.161258
    C   C146  0.498220  0.055419  0.342088  -0.161287
    C   C147  0.944583  0.498218  0.342088  -0.161137
    C   C148  0.501782  0.944583  0.342089  -0.161067
    C   C149  0.055419  0.498218  0.657912  -0.161142
    C   C150  0.498220  0.944580  0.657913  -0.161191
    C   C151  0.944580  0.501780  0.657913  -0.161176
    C   C152  0.501782  0.055419  0.657912  -0.161116
    C   C153  0.500001  0.999999  0.824021  0.110514
    C   C154  0.117997  0.500001  0.000000  0.766431
    C   C155  0.999999  0.499999  0.824021  0.110473
    C   C156  0.500001  0.000001  0.175979  0.110338
    C   C157  0.000001  0.499999  0.175979  0.110385
    C   C158  0.999999  0.500001  0.324021  0.110628
    C   C159  0.499999  0.999999  0.324021  0.110519
    C   C160  0.000001  0.500001  0.675979  0.110340
    C   C161  0.499999  0.000001  0.675979  0.110408
    C   C162  0.500000  0.000000  0.895980  0.080030
    C   C163  0.000000  0.500000  0.895980  0.079965
    C   C164  0.500000  0.000000  0.104019  0.080197
    C   C165  0.500002  0.117997  0.000000  0.766479
    C   C166  0.000000  0.500000  0.104019  0.080026
    C   C167  0.000000  0.500000  0.395980  0.079928
    C   C168  0.500000  0.000000  0.395980  0.079765
    C   C169  0.000000  0.500000  0.604019  0.079899
    C   C170  0.500000  0.000000  0.604019  0.080244
    C   C171  0.460494  0.038920  0.767902  -0.134246
    C   C172  0.961081  0.460493  0.767902  -0.134367
    C   C173  0.539507  0.961081  0.767902  -0.134267
    C   C174  0.038920  0.539506  0.767902  -0.134190
    C   C175  0.460494  0.961080  0.232098  -0.134142
    C   C176  0.882003  0.500002  0.000000  0.766417
    C   C177  0.961080  0.539506  0.232098  -0.134248
    C   C178  0.539508  0.038919  0.232098  -0.134524
    C   C179  0.038919  0.460493  0.232098  -0.134418
    C   C180  0.960493  0.538919  0.267902  -0.134343
    C   C181  0.461081  0.960493  0.267902  -0.134401
    C   C182  0.039506  0.461080  0.267902  -0.134112
    C   C183  0.538920  0.039506  0.267902  -0.134030
    C   C184  0.960494  0.461080  0.732098  -0.134274
    C   C185  0.461081  0.039507  0.732098  -0.134387
    C   C186  0.039507  0.538919  0.732098  -0.134451
    C   C187  0.500001  0.882003  0.000000  0.766444
    C   C188  0.538920  0.960493  0.732098  -0.134325
    C   C189  0.500000  0.999999  0.714029  0.060765
    C   C190  0.999999  0.500000  0.714029  0.060848
    C   C191  0.500000  0.000001  0.285971  0.060581
    C   C192  0.000001  0.500000  0.285971  0.060580
    C   C193  0.000000  0.500001  0.214029  0.060771
    C   C194  0.499999  0.000000  0.214029  0.060731
    C   C195  0.000000  0.500001  0.785971  0.060687
    C   C196  0.499999  0.000000  0.785971  0.060646
    C   C197  0.718563  0.950299  0.485751  0.303545
    C   C198  0.500000  0.000000  0.565980  0.560649
    C   C199  0.049702  0.718563  0.485751  0.303542
    C   C200  0.281437  0.049703  0.485751  0.303532
    C   C201  0.950298  0.281437  0.485751  0.303474
    C   C202  0.718564  0.049703  0.514249  0.303443
    C   C203  0.049702  0.281437  0.514249  0.303504
    C   C204  0.281437  0.950298  0.514249  0.303618
    C   C205  0.950298  0.718563  0.514249  0.303438
    C   C206  0.218563  0.450297  0.985751  0.303599
    C   C207  0.549701  0.218563  0.985751  0.303613
    C   C208  0.781437  0.549702  0.985751  0.303396
    Cu  Cu1   0.500000  0.060803  0.500000  0.895892
    Cu  Cu2   0.000000  0.000000  0.533852  0.780093
    Cu  Cu3   0.500000  0.500000  0.966148  0.780067
    Cu  Cu4   0.500000  0.500000  0.033852  0.780090
    Cu  Cu5   0.939197  0.500000  0.500000  0.895839
    Cu  Cu6   0.500001  0.939197  0.500000  0.895860
    Cu  Cu7   0.060803  0.500000  0.500000  0.895856
    Cu  Cu8   0.000000  0.560803  0.000000  0.895974
    Cu  Cu9   0.439197  0.000000  0.000000  0.895789
    Cu  Cu10  0.000000  0.439197  0.000000  0.895748
    Cu  Cu11  0.560803  0.000000  0.000000  0.895924
    Cu  Cu12  0.000000  0.000000  0.466148  0.780074
    H   H1    0.599360  0.004391  0.891469  0.136756
    H   H2    0.495609  0.099360  0.391470  0.136812
    H   H3    0.205437  0.743316  0.024954  0.131853
    H   H4    0.605913  0.803885  0.056549  0.290295
    H   H5    0.704508  0.843303  0.056424  0.104485
    H   H6    0.731049  0.876207  0.015897  0.163018
    H   H7    0.743316  0.794563  0.024954  0.131868
    H   H8    0.803886  0.394088  0.056549  0.290328
    H   H9    0.843303  0.295493  0.056424  0.104491
    H   H10   0.876207  0.268951  0.015897  0.163071
    H   H11   0.794564  0.256685  0.024955  0.131863
    H   H12   0.394087  0.196114  0.056549  0.290351
    H   H13   0.900640  0.495609  0.391469  0.136679
    H   H14   0.295493  0.156697  0.056424  0.104479
    H   H15   0.268951  0.123793  0.015897  0.163021
    H   H16   0.256685  0.205436  0.024954  0.131776
    H   H17   0.804718  0.857468  0.477150  0.281840
    H   H18   0.857158  0.812943  0.431908  0.142268
    H   H19   0.898806  0.865935  0.403994  0.210190
    H   H20   0.819221  0.845272  0.394016  0.149486
    H   H21   0.142532  0.804717  0.477150  0.281817
    H   H22   0.187057  0.857158  0.431908  0.142348
    H   H23   0.134066  0.898806  0.403994  0.210135
    H   H24   0.504391  0.900640  0.391469  0.136633
    H   H25   0.154729  0.819220  0.394016  0.149477
    H   H26   0.195282  0.142532  0.477150  0.281789
    H   H27   0.142842  0.187057  0.431908  0.142325
    H   H28   0.101194  0.134065  0.403994  0.210146
    H   H29   0.180779  0.154729  0.394016  0.149441
    H   H30   0.857468  0.195282  0.477150  0.281858
    H   H31   0.812944  0.142841  0.431908  0.142259
    H   H32   0.865935  0.101194  0.403994  0.210212
    H   H33   0.845271  0.180779  0.394016  0.149494
    H   H34   0.804718  0.142532  0.522850  0.281889
    H   H35   0.099359  0.495609  0.608532  0.136647
    H   H36   0.857159  0.187057  0.568092  0.142322
    H   H37   0.898806  0.134065  0.596006  0.210140
    H   H38   0.819221  0.154729  0.605984  0.149430
    H   H39   0.142532  0.195282  0.522850  0.281826
    H   H40   0.187056  0.142842  0.568092  0.142220
    H   H41   0.134065  0.101194  0.596006  0.210195
    H   H42   0.154728  0.180779  0.605985  0.149510
    H   H43   0.195283  0.857468  0.522850  0.281784
    H   H44   0.142842  0.812943  0.568092  0.142329
    H   H45   0.101194  0.865934  0.596006  0.210202
    H   H46   0.495609  0.900641  0.608531  0.136700
    H   H47   0.180780  0.845271  0.605984  0.149536
    H   H48   0.857467  0.804718  0.522849  0.281854
    H   H49   0.812943  0.857158  0.568091  0.142362
    H   H50   0.865934  0.898806  0.596006  0.210224
    H   H51   0.845271  0.819221  0.605984  0.149510
    H   H52   0.304718  0.357468  0.977150  0.281797
    H   H53   0.357158  0.312943  0.931908  0.142255
    H   H54   0.398806  0.365934  0.903994  0.210136
    H   H55   0.319220  0.345271  0.894016  0.149486
    H   H56   0.642533  0.304717  0.977151  0.281780
    H   H57   0.900641  0.504391  0.608531  0.136727
    H   H58   0.687057  0.357158  0.931909  0.142374
    H   H59   0.634066  0.398806  0.903994  0.210134
    H   H60   0.654730  0.319221  0.894016  0.149453
    H   H61   0.695282  0.642532  0.977150  0.281861
    H   H62   0.642841  0.687056  0.931908  0.142213
    H   H63   0.601194  0.634065  0.903994  0.210155
    H   H64   0.680779  0.654728  0.894016  0.149461
    H   H65   0.357468  0.695282  0.977150  0.281867
    H   H66   0.312943  0.642842  0.931908  0.142180
    H   H67   0.365935  0.601194  0.903994  0.210163
    H   H68   0.504391  0.099359  0.608532  0.136717
    H   H69   0.345271  0.680779  0.894016  0.149465
    H   H70   0.304718  0.642532  0.022850  0.281830
    H   H71   0.357158  0.687057  0.068092  0.142379
    H   H72   0.398806  0.634065  0.096006  0.210167
    H   H73   0.319221  0.654729  0.105984  0.149440
    H   H74   0.642533  0.695282  0.022850  0.281822
    H   H75   0.687057  0.642841  0.068092  0.142295
    H   H76   0.634065  0.601194  0.096006  0.210159
    H   H77   0.654729  0.680779  0.105984  0.149450
    H   H78   0.695282  0.357468  0.022850  0.281855
    H   H79   0.599166  0.004000  0.828336  0.110744
    H   H80   0.642842  0.312943  0.068092  0.142200
    H   H81   0.601194  0.365935  0.096006  0.210169
    H   H82   0.680779  0.345272  0.105984  0.149483
    H   H83   0.357468  0.304718  0.022850  0.281895
    H   H84   0.312943  0.357158  0.068092  0.142296
    H   H85   0.365934  0.398806  0.096006  0.210133
    H   H86   0.345271  0.319221  0.105984  0.149438
    H   H87   0.996001  0.599166  0.828337  0.110752
    H   H88   0.400834  0.996001  0.828337  0.110711
    H   H89   0.995609  0.599360  0.891469  0.136734
    H   H90   0.004000  0.400834  0.828336  0.110782
    H   H91   0.599166  0.996000  0.171665  0.110914
    H   H92   0.996000  0.400834  0.171664  0.110795
    H   H93   0.400834  0.003999  0.171663  0.110729
    H   H94   0.003999  0.599166  0.171663  0.110775
    H   H95   0.099166  0.503999  0.328337  0.110692
    H   H96   0.496001  0.099166  0.328337  0.110677
    H   H97   0.900834  0.496000  0.328336  0.110778
    H   H98   0.504000  0.900835  0.328336  0.110752
    H   H99   0.099166  0.496000  0.671664  0.110849
    H   H100  0.400640  0.995609  0.891469  0.136742
    H   H101  0.496001  0.900834  0.671664  0.110843
    H   H102  0.900834  0.503999  0.671664  0.110802
    H   H103  0.504000  0.099166  0.671664  0.110831
    H   H104  0.429781  0.070164  0.781645  0.111516
    H   H105  0.929836  0.429780  0.781644  0.111494
    H   H106  0.570219  0.929836  0.781643  0.111499
    H   H107  0.070164  0.570219  0.781645  0.111529
    H   H108  0.429781  0.929836  0.218354  0.111652
    H   H109  0.929836  0.570219  0.218354  0.111601
    H   H110  0.570220  0.070164  0.218356  0.111469
    H   H111  0.004391  0.400640  0.891468  0.136730
    H   H112  0.070164  0.429781  0.218356  0.111486
    H   H113  0.929780  0.570164  0.281643  0.111465
    H   H114  0.429836  0.929781  0.281643  0.111386
    H   H115  0.070219  0.429836  0.281645  0.111546
    H   H116  0.570164  0.070219  0.281645  0.111621
    H   H117  0.929781  0.429836  0.718354  0.111597
    H   H118  0.429836  0.070220  0.718355  0.111533
    H   H119  0.070220  0.570164  0.718356  0.111525
    H   H120  0.570164  0.929781  0.718354  0.111618
    H   H121  0.696114  0.894088  0.443450  0.290421
    H   H122  0.599359  0.995609  0.108532  0.136647
    H   H123  0.656697  0.795493  0.443576  0.104460
    H   H124  0.623793  0.768951  0.484103  0.163004
    H   H125  0.705437  0.756685  0.475045  0.131838
    H   H126  0.105913  0.696114  0.443451  0.290355
    H   H127  0.204507  0.656697  0.443576  0.104467
    H   H128  0.231049  0.623793  0.484104  0.163036
    H   H129  0.243315  0.705437  0.475046  0.131780
    H   H130  0.303886  0.105913  0.443451  0.290232
    H   H131  0.343303  0.204508  0.443577  0.104405
    H   H132  0.376206  0.231049  0.484104  0.163003
    H   H133  0.995609  0.400641  0.108532  0.136642
    H   H134  0.294563  0.243316  0.475046  0.131877
    H   H135  0.894087  0.303885  0.443451  0.290364
    H   H136  0.795493  0.343303  0.443576  0.104495
    H   H137  0.768951  0.376207  0.484103  0.162971
    H   H138  0.756685  0.294563  0.475045  0.131844
    H   H139  0.696115  0.105913  0.556549  0.290419
    H   H140  0.656697  0.204507  0.556424  0.104473
    H   H141  0.623794  0.231049  0.515897  0.162963
    H   H142  0.705437  0.243315  0.524955  0.131835
    H   H143  0.105912  0.303886  0.556549  0.290346
    H   H144  0.400641  0.004391  0.108531  0.136770
    H   H145  0.204507  0.343303  0.556424  0.104514
    H   H146  0.231049  0.376207  0.515897  0.163009
    H   H147  0.243315  0.294563  0.524955  0.131871
    H   H148  0.303886  0.894088  0.556549  0.290293
    H   H149  0.343303  0.795493  0.556424  0.104460
    H   H150  0.376207  0.768951  0.515897  0.163049
    H   H151  0.294563  0.756685  0.524955  0.131815
    H   H152  0.894087  0.696114  0.556549  0.290309
    H   H153  0.795492  0.656697  0.556423  0.104422
    H   H154  0.768951  0.623793  0.515896  0.163017
    H   H155  0.004391  0.599359  0.108531  0.136739
    H   H156  0.756684  0.705437  0.524954  0.131874
    H   H157  0.196114  0.394087  0.943451  0.290339
    H   H158  0.156697  0.295493  0.943576  0.104471
    H   H159  0.123793  0.268951  0.984103  0.163044
    H   H160  0.205437  0.256685  0.975045  0.131810
    H   H161  0.605913  0.196114  0.943451  0.290245
    H   H162  0.704508  0.156697  0.943577  0.104343
    H   H163  0.731049  0.123793  0.984104  0.163078
    H   H164  0.743316  0.205437  0.975046  0.131902
    H   H165  0.803885  0.605912  0.943451  0.290274
    H   H166  0.099360  0.504391  0.391469  0.136759
    H   H167  0.843303  0.704507  0.943576  0.104483
    H   H168  0.876207  0.731049  0.984103  0.163023
    H   H169  0.794563  0.743315  0.975045  0.131895
    H   H170  0.394088  0.803886  0.943451  0.290361
    H   H171  0.295493  0.843303  0.943576  0.104500
    H   H172  0.268951  0.876207  0.984103  0.163001
    H   H173  0.256685  0.794563  0.975045  0.131872
    H   H174  0.196115  0.605913  0.056549  0.290277
    H   H175  0.156697  0.704507  0.056424  0.104454
    H   H176  0.123793  0.731049  0.015897  0.163008
    N   N1    0.685815  0.901745  0.469196  -0.512874
    N   N2    0.598256  0.185815  0.969196  -0.512729
    N   N3    0.814185  0.598256  0.969196  -0.512746
    N   N4    0.401744  0.814184  0.969196  -0.512995
    N   N5    0.185815  0.598256  0.030804  -0.512885
    N   N6    0.598256  0.814185  0.030804  -0.512713
    N   N7    0.814184  0.401745  0.030804  -0.512751
    N   N8    0.401744  0.185816  0.030804  -0.513085
    N   N9    0.816854  0.901868  0.470035  -0.462048
    N   N10   0.098133  0.816854  0.470035  -0.461920
    N   N11   0.183146  0.098133  0.470035  -0.461868
    N   N12   0.098256  0.685815  0.469196  -0.513015
    N   N13   0.901867  0.183146  0.470035  -0.462001
    N   N14   0.816854  0.098133  0.529965  -0.462049
    N   N15   0.098132  0.183146  0.529965  -0.461923
    N   N16   0.183146  0.901867  0.529965  -0.461931
    N   N17   0.901867  0.816854  0.529965  -0.462024
    N   N18   0.316854  0.401867  0.970035  -0.461978
    N   N19   0.598133  0.316854  0.970035  -0.461851
    N   N20   0.683146  0.598132  0.970035  -0.462086
    N   N21   0.401867  0.683146  0.970035  -0.462017
    N   N22   0.316854  0.598133  0.029965  -0.461883
    N   N23   0.314184  0.098256  0.469196  -0.512809
    N   N24   0.598133  0.683146  0.029965  -0.461962
    N   N25   0.683146  0.401867  0.029965  -0.461976
    N   N26   0.401867  0.316854  0.029965  -0.462122
    N   N27   0.901744  0.314184  0.469196  -0.512909
    N   N28   0.685816  0.098256  0.530804  -0.513076
    N   N29   0.098255  0.314184  0.530804  -0.512797
    N   N30   0.314185  0.901744  0.530804  -0.512957
    N   N31   0.901744  0.685815  0.530804  -0.512860
    N   N32   0.185816  0.401744  0.969196  -0.512915
    O   O1    0.588710  0.051339  0.490692  -0.473128
    O   O2    0.448661  0.088710  0.990692  -0.473127
    O   O3    0.911289  0.448661  0.990692  -0.473268
    O   O4    0.551338  0.911291  0.990693  -0.473427
    O   O5    0.088711  0.448661  0.009308  -0.473285
    O   O6    0.448661  0.911289  0.009308  -0.473096
    O   O7    0.911291  0.551338  0.009307  -0.473230
    O   O8    0.551338  0.088709  0.009308  -0.473437
    O   O9    0.516722  0.051381  0.549679  -0.611669
    O   O10   0.948620  0.516722  0.549679  -0.611866
    O   O11   0.483278  0.948620  0.549679  -0.611675
    O   O12   0.948661  0.588709  0.490692  -0.473147
    O   O13   0.051380  0.483278  0.549679  -0.611833
    O   O14   0.516722  0.948621  0.450321  -0.611833
    O   O15   0.948620  0.483278  0.450321  -0.611653
    O   O16   0.483278  0.051380  0.450321  -0.611986
    O   O17   0.051380  0.516721  0.450321  -0.611910
    O   O18   0.016722  0.551380  0.049679  -0.611843
    O   O19   0.448620  0.016722  0.049679  -0.611959
    O   O20   0.983278  0.448620  0.049679  -0.611783
    O   O21   0.551380  0.983278  0.049679  -0.611560
    O   O22   0.016722  0.448620  0.950321  -0.611773
    O   O23   0.411291  0.948662  0.490693  -0.473289
    O   O24   0.448620  0.983278  0.950321  -0.611818
    O   O25   0.983278  0.551380  0.950321  -0.611771
    O   O26   0.551380  0.016722  0.950321  -0.611729
    O   O27   0.017837  0.088700  0.471448  -0.405523
    O   O28   0.911300  0.017837  0.471448  -0.405625
    O   O29   0.982163  0.911300  0.471448  -0.405548
    O   O30   0.088700  0.982163  0.471448  -0.405568
    O   O31   0.017837  0.911300  0.528552  -0.405676
    O   O32   0.911300  0.982163  0.528552  -0.405605
    O   O33   0.982163  0.088700  0.528552  -0.405505
    O   O34   0.051339  0.411290  0.490692  -0.473094
    O   O35   0.088700  0.017837  0.528552  -0.405560
    O   O36   0.517837  0.588700  0.971448  -0.405547
    O   O37   0.411300  0.517837  0.971448  -0.405556
    O   O38   0.482163  0.411300  0.971448  -0.405580
    O   O39   0.588700  0.482163  0.971448  -0.405513
    O   O40   0.517837  0.411300  0.028552  -0.405623
    O   O41   0.411300  0.482163  0.028552  -0.405552
    O   O42   0.482163  0.588700  0.028552  -0.405583
    O   O43   0.588700  0.517837  0.028552  -0.405496
    O   O44   0.688937  0.851860  0.519839  -0.583442
    O   O45   0.588709  0.948662  0.509308  -0.473086
    O   O46   0.148140  0.688937  0.519839  -0.583459
    O   O47   0.311063  0.148140  0.519839  -0.583480
    O   O48   0.851860  0.311063  0.519839  -0.583455
    O   O49   0.688937  0.148140  0.480161  -0.583364
    O   O50   0.148140  0.311063  0.480161  -0.583479
    O   O51   0.311063  0.851860  0.480161  -0.583502
    O   O52   0.851860  0.688937  0.480161  -0.583465
    O   O53   0.188937  0.351860  0.019839  -0.583458
    O   O54   0.648140  0.188937  0.019839  -0.583450
    O   O55   0.811063  0.648140  0.019839  -0.583454
    O   O56   0.948662  0.411290  0.509308  -0.473246
    O   O57   0.351860  0.811063  0.019839  -0.583413
    O   O58   0.188937  0.648140  0.980161  -0.583395
    O   O59   0.648140  0.811063  0.980161  -0.583435
    O   O60   0.811063  0.351860  0.980161  -0.583473
    O   O61   0.351860  0.188937  0.980161  -0.583409
    O   O62   0.824666  0.959527  0.422194  -0.562051
    O   O63   0.040473  0.824666  0.422194  -0.562128
    O   O64   0.175334  0.040473  0.422194  -0.562145
    O   O65   0.959527  0.175334  0.422194  -0.562070
    O   O66   0.824666  0.040473  0.577806  -0.562163
    O   O67   0.411290  0.051339  0.509308  -0.473297
    O   O68   0.040473  0.175334  0.577806  -0.562015
    O   O69   0.175334  0.959527  0.577806  -0.562203
    O   O70   0.959526  0.824666  0.577806  -0.562239
    O   O71   0.324666  0.459527  0.922194  -0.562119
    O   O72   0.540474  0.324666  0.922194  -0.562181
    O   O73   0.675334  0.540473  0.922194  -0.562095
    O   O74   0.459527  0.675334  0.922194  -0.562070
    O   O75   0.324666  0.540473  0.077806  -0.562189
    O   O76   0.540473  0.675334  0.077806  -0.562091
    O   O77   0.675334  0.459527  0.077806  -0.562063
    O   O78   0.051338  0.588710  0.509308  -0.473230
    O   O79   0.459526  0.324666  0.077806  -0.562253
    O   O80   0.088709  0.551338  0.990693  -0.473246
