# Generated by REPEAT Assigner based on pymatgen
data_DB0-m2_o1_o2_f0_pcu.sym.3
_audit_creation_date              2022-05-24
_audit_creation_method            REPEAT_Assigner
_cell_length_a                    10.865639
_cell_length_b                    9.405799
_cell_length_c                    15.107987
_cell_angle_alpha                 90.000000
_cell_angle_beta                  90.005970
_cell_angle_gamma                 90.000000
_cell_volume                      1544.036554
_symmetry_space_group_name_H-M    P1
_symmetry_Int_Tables_number       1
loop_
    _symmetry_equiv_pos_site_id
    _symmetry_equiv_pos_as_xyz
    1  x,y,z
loop_
    _atom_site_type_symbol
    _atom_site_label
    _atom_site_fract_x
    _atom_site_fract_y
    _atom_site_fract_z
    _atom_type_partial_charge
    O   O1   0.321378  0.621765  0.495013  -0.598481
    O   O2   0.678567  0.378213  0.502869  -0.596450
    O   O3   0.679069  0.622469  0.498016  -0.605732
    O   O4   0.320846  0.377678  0.502913  -0.610625
    N   N1   0.500143  0.854857  0.499522  0.065146
    N   N2   0.497456  0.145114  0.498542  0.107094
    C   C1   0.263302  0.499867  0.498467  0.742923
    C   C2   0.736812  0.500248  0.500381  0.737295
    O   O5   0.506604  0.622605  0.371048  -0.590063
    O   O6   0.495635  0.377500  0.628482  -0.597166
    O   O7   0.502273  0.621713  0.628273  -0.601668
    O   O8   0.495397  0.378314  0.371225  -0.596772
    C   C3   0.501256  0.500543  0.329770  0.675469
    C   C4   0.498587  0.499555  0.670021  0.678517
    Cu  Cu1  0.498641  0.642172  0.498487  0.865708
    Cu  Cu2  0.503199  0.357824  0.502632  0.845580
    H   H1   0.374290  0.130048  0.393690  0.246250
    H   H2   0.626059  0.869436  0.604890  0.216698
    H   H3   0.629620  0.130274  0.602863  0.117536
    H   H4   0.371728  0.870059  0.395055  0.086407
    C   C5   0.430330  0.073316  0.441099  -0.213627
    C   C6   0.569918  0.926659  0.557822  -0.158997
    C   C7   0.571520  0.073218  0.556967  -0.025546
    C   C8   0.429071  0.926602  0.441713  0.046034
    C   C9   0.063443  0.403864  0.447952  0.073861
    C   C10  0.937339  0.595473  0.551981  0.059363
    C   C11  0.936488  0.403401  0.448753  -0.009545
    C   C12  0.064274  0.596136  0.551138  0.004279
    C   C13  0.535974  0.620452  0.095417  -0.170448
    C   C14  0.527428  0.376679  0.904731  -0.154486
    C   C15  0.472855  0.622273  0.904835  -0.165876
    C   C16  0.465135  0.380450  0.095964  -0.182161
    H   H5   0.567238  0.714833  0.061490  0.117311
    H   H6   0.552867  0.279548  0.938279  0.114658
    H   H7   0.447566  0.718660  0.939195  0.114320
    H   H8   0.433265  0.286375  0.062133  0.117283
    C   C17  0.535267  0.621066  0.186671  -0.064256
    C   C18  0.525423  0.376474  0.813479  -0.092065
    C   C19  0.473307  0.622611  0.813515  -0.083652
    C   C20  0.466394  0.380442  0.187228  -0.036869
    H   H9   0.564337  0.716211  0.221050  0.109098
    H   H10  0.547526  0.279232  0.778910  0.114272
    H   H11  0.450797  0.719781  0.779037  0.128813
    H   H12  0.437516  0.286107  0.222314  0.103232
    C   C21  0.501292  0.500680  0.232993  -0.095609
    C   C22  0.498914  0.499517  0.767260  -0.069073
    C   C23  0.500852  0.500079  0.049071  0.099236
    C   C24  0.500591  0.499564  0.951420  0.102897
    C   C25  0.872157  0.499757  0.500460  -0.043140
    C   C26  0.128263  0.500461  0.498868  -0.044903
    Cl  Cl1  0.139384  0.286891  0.375716  -0.107873
    Cl  Cl2  0.861807  0.712242  0.624187  -0.093878
    Cl  Cl3  0.859791  0.286042  0.377465  -0.035570
    Cl  Cl4  0.141116  0.713880  0.622177  -0.044750
