# Generated by REPEAT Assigner based on pymatgen
data_DB0-m2_o1_o3_f0_nbo.sym.82
_audit_creation_date              2022-05-24
_audit_creation_method            REPEAT_Assigner
_cell_length_a                    21.496671
_cell_length_b                    21.496671
_cell_length_c                    38.408075
_cell_angle_alpha                 90.000000
_cell_angle_beta                  90.000000
_cell_angle_gamma                 90.000000
_cell_volume                      17748.634836
_symmetry_space_group_name_H-M    P1
_symmetry_Int_Tables_number       1
loop_
    _symmetry_equiv_pos_site_id
    _symmetry_equiv_pos_as_xyz
    1  x,y,z
loop_
    _atom_site_type_symbol
    _atom_site_label
    _atom_site_fract_x
    _atom_site_fract_y
    _atom_site_fract_z
    _atom_type_partial_charge
    O   O1    0.588388  0.050957  0.510385  -0.613055
    O   O2    0.949043  0.588388  0.510385  -0.613063
    O   O3    0.411611  0.949043  0.510385  -0.613044
    O   O4    0.050957  0.411611  0.510385  -0.613048
    O   O5    0.588388  0.949043  0.489615  -0.613043
    O   O6    0.949043  0.411611  0.489615  -0.613057
    O   O7    0.411611  0.050957  0.489615  -0.613053
    O   O8    0.050957  0.588389  0.489615  -0.613049
    O   O9    0.088389  0.550957  0.010385  -0.613044
    O   O10   0.449044  0.088389  0.010385  -0.613049
    O   O11   0.911612  0.449043  0.010385  -0.613042
    O   O12   0.550958  0.911612  0.010385  -0.613048
    O   O13   0.088389  0.449043  0.989615  -0.613045
    O   O14   0.449044  0.911612  0.989615  -0.613051
    O   O15   0.911612  0.550957  0.989615  -0.613040
    O   O16   0.550957  0.088389  0.989615  -0.613058
    C   C1    0.617503  0.000000  0.500000  0.708430
    C   C2    0.000000  0.617504  0.500000  0.708443
    C   C3    0.382496  0.000000  0.500000  0.708450
    C   C4    0.000000  0.382496  0.500000  0.708436
    C   C5    0.117504  0.500000  0.000000  0.708417
    C   C6    0.500000  0.117504  0.000000  0.708444
    C   C7    0.882497  0.500000  0.000000  0.708411
    C   C8    0.500001  0.882497  0.000000  0.708424
    O   O17   0.481463  0.050999  0.549579  -0.675097
    O   O18   0.949001  0.481464  0.549579  -0.675109
    O   O19   0.518536  0.949000  0.549579  -0.675082
    O   O20   0.050999  0.518536  0.549579  -0.675102
    O   O21   0.481463  0.949001  0.450421  -0.675104
    O   O22   0.949000  0.518536  0.450421  -0.675115
    O   O23   0.518536  0.050999  0.450421  -0.675114
    O   O24   0.050999  0.481464  0.450421  -0.675112
    O   O25   0.981464  0.551000  0.049579  -0.675099
    O   O26   0.449001  0.981464  0.049579  -0.675113
    O   O27   0.018537  0.449001  0.049579  -0.675109
    O   O28   0.551000  0.018537  0.049579  -0.675100
    O   O29   0.981464  0.449001  0.950421  -0.675102
    O   O30   0.449001  0.018536  0.950421  -0.675109
    O   O31   0.018537  0.551000  0.950421  -0.675091
    O   O32   0.551000  0.981464  0.950421  -0.675101
    C   C9    0.500000  0.000000  0.565778  0.928528
    C   C10   0.000000  0.500000  0.565778  0.928566
    C   C11   0.500000  0.000000  0.434222  0.928579
    C   C12   0.999999  0.500000  0.434222  0.928579
    C   C13   0.000000  0.500000  0.065778  0.928549
    C   C14   0.500001  0.000000  0.065778  0.928561
    C   C15   0.000001  0.500000  0.934222  0.928591
    C   C16   0.500000  0.000000  0.934222  0.928616
    Cu  Cu1   0.500000  0.060581  0.500000  0.996324
    Cu  Cu2   0.939418  0.500000  0.500000  0.996347
    Cu  Cu3   0.500000  0.939419  0.500000  0.996357
    Cu  Cu4   0.060581  0.500000  0.500000  0.996362
    Cu  Cu5   0.000001  0.560581  0.000000  0.996357
    Cu  Cu6   0.439419  0.000000  0.000000  0.996321
    Cu  Cu7   0.000001  0.439419  0.000000  0.996325
    Cu  Cu8   0.560582  0.000000  0.000000  0.996355
    C   C17   0.495114  0.944783  0.878473  -0.319020
    C   C18   0.055217  0.495114  0.878473  -0.319007
    C   C19   0.504887  0.055217  0.878473  -0.319016
    C   C20   0.944784  0.504887  0.878473  -0.319010
    C   C21   0.495115  0.055217  0.121527  -0.318993
    C   C22   0.055217  0.504886  0.121527  -0.319001
    C   C23   0.504886  0.944783  0.121527  -0.319010
    C   C24   0.944783  0.495115  0.121527  -0.319000
    C   C25   0.995113  0.444783  0.378473  -0.319013
    C   C26   0.555217  0.995114  0.378473  -0.318983
    C   C27   0.004886  0.555217  0.378473  -0.319017
    C   C28   0.444783  0.004886  0.378473  -0.318976
    C   C29   0.995115  0.555217  0.621527  -0.318994
    C   C30   0.555216  0.004885  0.621527  -0.319018
    C   C31   0.004885  0.444783  0.621527  -0.318991
    C   C32   0.444782  0.995114  0.621527  -0.319004
    H   H1    0.490615  0.901628  0.892713  0.131000
    H   H2    0.098372  0.490615  0.892713  0.130993
    H   H3    0.509385  0.098371  0.892713  0.131006
    H   H4    0.901629  0.509385  0.892713  0.131005
    H   H5    0.490617  0.098372  0.107287  0.130994
    H   H6    0.098372  0.509383  0.107287  0.130995
    H   H7    0.509384  0.901629  0.107287  0.130996
    H   H8    0.901629  0.490617  0.107287  0.130997
    H   H9    0.990615  0.401629  0.392713  0.131002
    H   H10   0.598371  0.990616  0.392713  0.130994
    H   H11   0.009384  0.598372  0.392713  0.130997
    H   H12   0.401628  0.009384  0.392713  0.130991
    H   H13   0.990617  0.598372  0.607287  0.130996
    H   H14   0.598371  0.009383  0.607287  0.130996
    H   H15   0.009383  0.401628  0.607287  0.130992
    H   H16   0.401628  0.990617  0.607287  0.131002
    C   C33   0.493602  0.944665  0.842593  0.413052
    C   C34   0.055335  0.493602  0.842593  0.413011
    C   C35   0.506398  0.055334  0.842592  0.413004
    C   C36   0.944666  0.506398  0.842593  0.413024
    C   C37   0.493603  0.055335  0.157408  0.412978
    C   C38   0.055335  0.506398  0.157407  0.412998
    C   C39   0.506398  0.944665  0.157407  0.413046
    C   C40   0.944666  0.493603  0.157407  0.413009
    C   C41   0.993601  0.444666  0.342592  0.413021
    C   C42   0.555335  0.993602  0.342593  0.413008
    C   C43   0.006398  0.555335  0.342593  0.413049
    C   C44   0.444665  0.006398  0.342592  0.412958
    C   C45   0.993603  0.555335  0.657407  0.412993
    C   C46   0.555334  0.006397  0.657408  0.413014
    C   C47   0.006397  0.444665  0.657407  0.412966
    C   C48   0.444665  0.993602  0.657407  0.413056
    C   C49   0.500000  0.999999  0.824351  -0.319799
    C   C50   0.000000  0.500000  0.824351  -0.319780
    C   C51   0.500001  0.000000  0.175649  -0.319797
    C   C52   0.000000  0.500001  0.175649  -0.319782
    C   C53   0.000000  0.500000  0.324351  -0.319823
    C   C54   0.500000  0.000000  0.324351  -0.319771
    C   C55   0.000000  0.500000  0.675649  -0.319733
    C   C56   0.499999  0.999999  0.675649  -0.319829
    C   C57   0.500000  0.000000  0.896344  -0.031708
    C   C58   0.000001  0.500000  0.896344  -0.031706
    C   C59   0.500001  0.000000  0.103656  -0.031685
    C   C60   0.000000  0.500000  0.103656  -0.031681
    C   C61   0.999999  0.500000  0.396344  -0.031684
    C   C62   0.500000  0.000000  0.396344  -0.031711
    C   C63   0.000000  0.500000  0.603656  -0.031699
    C   C64   0.499999  0.000000  0.603656  -0.031676
    C   C65   0.460445  0.038831  0.767921  -0.281089
    C   C66   0.961169  0.460446  0.767921  -0.281082
    C   C67   0.539553  0.961167  0.767921  -0.281076
    C   C68   0.038832  0.539554  0.767921  -0.281088
    C   C69   0.460446  0.961169  0.232079  -0.281066
    C   C70   0.961169  0.539555  0.232079  -0.281073
    C   C71   0.539555  0.038831  0.232079  -0.281085
    C   C72   0.038831  0.460446  0.232079  -0.281058
    C   C73   0.960446  0.538832  0.267921  -0.281086
    C   C74   0.461169  0.960446  0.267921  -0.281096
    C   C75   0.039554  0.461169  0.267921  -0.281100
    C   C76   0.538832  0.039554  0.267921  -0.281077
    C   C77   0.960446  0.461169  0.732079  -0.281062
    C   C78   0.461168  0.039554  0.732079  -0.281062
    C   C79   0.039555  0.538831  0.732079  -0.281058
    C   C80   0.538830  0.960444  0.732079  -0.281074
    H   H17   0.428431  0.068841  0.781645  0.152348
    H   H18   0.931158  0.428432  0.781645  0.152347
    H   H19   0.571568  0.931157  0.781645  0.152349
    H   H20   0.068843  0.571568  0.781645  0.152349
    H   H21   0.428431  0.931159  0.218355  0.152351
    H   H22   0.931159  0.571570  0.218355  0.152347
    H   H23   0.571570  0.068841  0.218355  0.152348
    H   H24   0.068841  0.428431  0.218355  0.152349
    H   H25   0.928432  0.568843  0.281645  0.152353
    H   H26   0.431159  0.928431  0.281645  0.152348
    H   H27   0.071569  0.431159  0.281645  0.152350
    H   H28   0.568842  0.071568  0.281645  0.152349
    H   H29   0.928431  0.431159  0.718355  0.152347
    H   H30   0.431158  0.071569  0.718355  0.152352
    H   H31   0.071570  0.568841  0.718355  0.152349
    H   H32   0.568840  0.928430  0.718355  0.152350
    C   C81   0.499999  0.999999  0.713896  0.472767
    C   C82   0.000000  0.500000  0.713896  0.472733
    C   C83   0.500000  0.000000  0.286104  0.472778
    C   C84   0.000000  0.500001  0.286104  0.472792
    C   C85   0.000000  0.500001  0.213896  0.472756
    C   C86   0.500001  0.000000  0.213896  0.472777
    C   C87   0.000000  0.500000  0.786104  0.472764
    C   C88   0.499999  0.999999  0.786104  0.472755
    C   C89   0.717772  0.961192  0.477769  -0.093567
    C   C90   0.038808  0.717772  0.477769  -0.093565
    C   C91   0.282228  0.038808  0.477769  -0.093570
    C   C92   0.961192  0.282228  0.477769  -0.093574
    C   C93   0.717772  0.038808  0.522231  -0.093571
    C   C94   0.038808  0.282228  0.522231  -0.093574
    C   C95   0.282228  0.961192  0.522231  -0.093570
    C   C96   0.961191  0.717772  0.522231  -0.093571
    C   C97   0.217773  0.461192  0.977769  -0.093566
    C   C98   0.538809  0.217772  0.977769  -0.093575
    C   C99   0.782228  0.538808  0.977769  -0.093581
    C   C100  0.461192  0.782228  0.977769  -0.093570
    C   C101  0.217773  0.538808  0.022231  -0.093571
    C   C102  0.538809  0.782228  0.022231  -0.093572
    C   C103  0.782228  0.461192  0.022231  -0.093585
    C   C104  0.461192  0.217772  0.022231  -0.093574
    H   H33   0.693213  0.930909  0.460003  0.110455
    H   H34   0.069090  0.693213  0.460003  0.110460
    H   H35   0.306787  0.069091  0.460003  0.110456
    H   H36   0.930909  0.306787  0.460003  0.110459
    H   H37   0.693213  0.069091  0.539997  0.110459
    H   H38   0.069091  0.306787  0.539997  0.110459
    H   H39   0.306787  0.930909  0.539997  0.110458
    H   H40   0.930909  0.693213  0.539997  0.110462
    H   H41   0.193213  0.430910  0.960003  0.110457
    H   H42   0.569091  0.193213  0.960003  0.110463
    H   H43   0.806788  0.569091  0.960003  0.110462
    H   H44   0.430910  0.806787  0.960003  0.110463
    H   H45   0.193213  0.569091  0.039997  0.110457
    H   H46   0.569091  0.806787  0.039997  0.110460
    H   H47   0.806788  0.430909  0.039997  0.110461
    H   H48   0.430910  0.193213  0.039997  0.110459
    C   C105  0.781884  0.961976  0.477344  -0.112618
    C   C106  0.038023  0.781884  0.477344  -0.112606
    C   C107  0.218115  0.038024  0.477344  -0.112623
    C   C108  0.961976  0.218116  0.477344  -0.112613
    C   C109  0.781884  0.038024  0.522656  -0.112610
    C   C110  0.038024  0.218116  0.522656  -0.112612
    C   C111  0.218115  0.961976  0.522656  -0.112623
    C   C112  0.961976  0.781884  0.522656  -0.112610
    C   C113  0.281885  0.461976  0.977344  -0.112623
    C   C114  0.538024  0.281884  0.977344  -0.112606
    C   C115  0.718116  0.538024  0.977344  -0.112616
    C   C116  0.461977  0.718116  0.977344  -0.112610
    C   C117  0.281885  0.538024  0.022656  -0.112625
    C   C118  0.538025  0.718116  0.022656  -0.112612
    C   C119  0.718116  0.461976  0.022656  -0.112614
    C   C120  0.461977  0.281884  0.022656  -0.112614
    H   H49   0.806372  0.931604  0.459601  0.118182
    H   H50   0.068395  0.806372  0.459601  0.118174
    H   H51   0.193627  0.068396  0.459601  0.118182
    H   H52   0.931604  0.193628  0.459601  0.118178
    H   H53   0.806372  0.068396  0.540399  0.118179
    H   H54   0.068396  0.193628  0.540399  0.118180
    H   H55   0.193627  0.931604  0.540399  0.118184
    H   H56   0.931604  0.806372  0.540399  0.118179
    H   H57   0.306373  0.431604  0.959601  0.118180
    H   H58   0.568396  0.306373  0.959601  0.118169
    H   H59   0.693628  0.568396  0.959601  0.118179
    H   H60   0.431605  0.693628  0.959601  0.118176
    H   H61   0.306373  0.568396  0.040399  0.118184
    H   H62   0.568396  0.693628  0.040399  0.118181
    H   H63   0.693628  0.431604  0.040399  0.118181
    H   H64   0.431605  0.306373  0.040399  0.118174
    C   C121  0.814189  0.000000  0.500000  -0.018892
    C   C122  0.000000  0.814189  0.500000  -0.018894
    C   C123  0.185810  0.000000  0.500000  -0.018878
    C   C124  0.000000  0.185811  0.500000  -0.018890
    C   C125  0.314190  0.500000  0.000000  -0.018863
    C   C126  0.500001  0.314190  0.000000  -0.018885
    C   C127  0.685811  0.500000  0.000000  -0.018869
    C   C128  0.500001  0.685811  0.000000  -0.018887
    C   C129  0.685501  0.000000  0.500000  -0.009971
    C   C130  0.000000  0.685501  0.500000  -0.009981
    C   C131  0.314499  0.000000  0.500000  -0.009978
    C   C132  0.000000  0.314499  0.500000  -0.009966
    C   C133  0.185502  0.500000  0.000000  -0.009971
    C   C134  0.500000  0.185501  0.000000  -0.009975
    C   C135  0.814499  0.500000  0.000000  -0.009956
    C   C136  0.500001  0.814499  0.000000  -0.009978
    O   O33   0.981308  0.088602  0.471548  -0.599656
    O   O34   0.911397  0.981308  0.471548  -0.599654
    O   O35   0.018691  0.911398  0.471548  -0.599662
    O   O36   0.088602  0.018692  0.471548  -0.599654
    O   O37   0.981308  0.911398  0.528452  -0.599711
    O   O38   0.911397  0.018692  0.528452  -0.599700
    O   O39   0.018692  0.088602  0.528452  -0.599700
    O   O40   0.088602  0.981308  0.528452  -0.599700
    O   O41   0.481309  0.588603  0.971548  -0.599648
    O   O42   0.411398  0.481308  0.971548  -0.599643
    O   O43   0.518692  0.411398  0.971548  -0.599641
    O   O44   0.588603  0.518692  0.971548  -0.599642
    O   O45   0.481309  0.411398  0.028452  -0.599688
    O   O46   0.411398  0.518692  0.028452  -0.599677
    O   O47   0.518692  0.588603  0.028452  -0.599686
    O   O48   0.588603  0.481308  0.028452  -0.599679
    C   C137  0.000000  0.117771  0.500000  0.713444
    C   C138  0.882228  0.000000  0.500000  0.713453
    C   C139  0.000000  0.882228  0.500000  0.713455
    C   C140  0.117771  0.000000  0.500000  0.713443
    C   C141  0.500001  0.617772  0.000000  0.713430
    C   C142  0.382229  0.500000  0.000000  0.713410
    C   C143  0.500001  0.382229  0.000000  0.713431
    C   C144  0.617772  0.500000  0.000000  0.713408
    Cu  Cu9   0.000000  0.000000  0.466183  0.945621
    Cu  Cu10  0.000000  0.000000  0.533817  0.945449
    Cu  Cu11  0.500001  0.500000  0.966183  0.945532
    Cu  Cu12  0.500000  0.500000  0.033817  0.945496
    N   N1    0.484813  0.887883  0.824870  -0.681314
    C   C145  0.422997  0.865680  0.826965  0.483270
    C   C146  0.412269  0.803397  0.833627  -0.309429
    C   C147  0.352280  0.781047  0.835612  -0.033711
    C   C148  0.302674  0.820621  0.830703  -0.211569
    C   C149  0.313059  0.882575  0.823659  -0.035140
    C   C150  0.372961  0.905183  0.821717  -0.280558
    H   H65   0.515941  0.854731  0.833192  0.327769
    H   H66   0.450634  0.771620  0.837463  0.121802
    H   H67   0.344163  0.732361  0.840977  0.100104
    H   H68   0.255651  0.803017  0.832198  0.112652
    H   H69   0.274137  0.913531  0.819515  0.100492
    H   H70   0.379593  0.953742  0.815596  0.118732
    N   N2    0.112117  0.484814  0.824869  -0.681272
    C   C151  0.134320  0.422997  0.826964  0.483083
    C   C152  0.196602  0.412269  0.833626  -0.309319
    C   C153  0.218953  0.352280  0.835610  -0.033641
    C   C154  0.179379  0.302674  0.830702  -0.211636
    C   C155  0.117424  0.313059  0.823657  -0.035379
    C   C156  0.094816  0.372961  0.821716  -0.280267
    H   H71   0.145269  0.515941  0.833192  0.327768
    H   H72   0.228380  0.450634  0.837462  0.121773
    H   H73   0.267639  0.344163  0.840975  0.100067
    H   H74   0.196983  0.255651  0.832196  0.112705
    H   H75   0.086469  0.274138  0.819514  0.100575
    H   H76   0.046258  0.379593  0.815595  0.118660
    N   N3    0.515186  0.112116  0.824869  -0.681274
    C   C157  0.577003  0.134319  0.826963  0.483026
    C   C158  0.587731  0.196601  0.833624  -0.309259
    C   C159  0.647720  0.218952  0.835608  -0.033711
    C   C160  0.697326  0.179378  0.830700  -0.211529
    C   C161  0.686941  0.117423  0.823656  -0.035515
    C   C162  0.627039  0.094815  0.821715  -0.280165
    H   H77   0.484059  0.145268  0.833192  0.327776
    H   H78   0.549367  0.228380  0.837461  0.121762
    H   H79   0.655838  0.267638  0.840973  0.100076
    H   H80   0.744349  0.196981  0.832194  0.112686
    H   H81   0.725861  0.086467  0.819512  0.100608
    H   H82   0.620403  0.046257  0.815595  0.118640
    N   N4    0.887884  0.515187  0.824870  -0.681317
    C   C163  0.865681  0.577003  0.826964  0.483117
    C   C164  0.803399  0.587731  0.833626  -0.309337
    C   C165  0.781048  0.647720  0.835610  -0.033639
    C   C166  0.820622  0.697326  0.830702  -0.211628
    C   C167  0.882577  0.686941  0.823657  -0.035397
    C   C168  0.905185  0.627039  0.821716  -0.280262
    H   H83   0.854732  0.484059  0.833192  0.327779
    H   H84   0.771620  0.549367  0.837463  0.121776
    H   H85   0.732363  0.655839  0.840975  0.100067
    H   H86   0.803020  0.744350  0.832196  0.112702
    H   H87   0.913533  0.725862  0.819513  0.100579
    H   H88   0.953742  0.620402  0.815595  0.118657
    N   N5    0.484816  0.112116  0.175131  -0.681252
    C   C169  0.422999  0.134320  0.173036  0.483012
    C   C170  0.412272  0.196603  0.166375  -0.309265
    C   C171  0.352283  0.218954  0.164390  -0.033686
    C   C172  0.302677  0.179381  0.169299  -0.211573
    C   C173  0.313061  0.117426  0.176343  -0.035439
    C   C174  0.372963  0.094818  0.178284  -0.280185
    H   H89   0.515944  0.145269  0.166808  0.327770
    H   H90   0.450637  0.228381  0.162538  0.121764
    H   H91   0.344166  0.267640  0.159025  0.100075
    H   H92   0.255654  0.196984  0.167804  0.112693
    H   H93   0.274140  0.086471  0.180487  0.100588
    H   H94   0.379599  0.046260  0.184405  0.118628
    N   N6    0.112117  0.515185  0.175131  -0.681296
    C   C175  0.134321  0.577001  0.173036  0.483237
    C   C176  0.196604  0.587728  0.166374  -0.309415
    C   C177  0.218955  0.647717  0.164389  -0.033717
    C   C178  0.179382  0.697323  0.169298  -0.211559
    C   C179  0.117427  0.686940  0.176342  -0.035161
    C   C180  0.094819  0.627038  0.178284  -0.280517
    H   H95   0.145269  0.484057  0.166808  0.327768
    H   H96   0.228382  0.549363  0.162537  0.121799
    H   H97   0.267641  0.655834  0.159025  0.100107
    H   H98   0.196986  0.744347  0.167803  0.112648
    H   H99   0.086472  0.725861  0.180486  0.100505
    H   H100  0.046261  0.620402  0.184405  0.118713
    N   N7    0.515186  0.887884  0.175130  -0.681347
    C   C181  0.577002  0.865680  0.173036  0.483278
    C   C182  0.587729  0.803397  0.166374  -0.309428
    C   C183  0.647718  0.781046  0.164390  -0.033701
    C   C184  0.697324  0.820619  0.169298  -0.211573
    C   C185  0.686940  0.882574  0.176342  -0.035147
    C   C186  0.627038  0.905182  0.178284  -0.280546
    H   H101  0.484057  0.854732  0.166808  0.327778
    H   H102  0.549364  0.771619  0.162537  0.121800
    H   H103  0.655835  0.732360  0.159025  0.100100
    H   H104  0.744347  0.803016  0.167803  0.112656
    H   H105  0.725861  0.913529  0.180486  0.100499
    H   H106  0.620403  0.953740  0.184405  0.118723
    N   N8    0.887884  0.484816  0.175130  -0.681337
    C   C187  0.865680  0.423000  0.173036  0.483208
    C   C188  0.803397  0.412273  0.166374  -0.309444
    C   C189  0.781046  0.352284  0.164390  -0.033565
    C   C190  0.820619  0.302677  0.169299  -0.211681
    C   C191  0.882574  0.313061  0.176343  -0.035331
    C   C192  0.905182  0.372963  0.178284  -0.280336
    H   H107  0.854732  0.515944  0.166808  0.327799
    H   H108  0.771619  0.450638  0.162538  0.121794
    H   H109  0.732360  0.344167  0.159025  0.100057
    H   H110  0.803015  0.255654  0.167804  0.112710
    H   H111  0.913529  0.274140  0.180487  0.100571
    H   H112  0.953741  0.379597  0.184405  0.118658
    N   N9    0.984814  0.387884  0.324869  -0.681285
    C   C193  0.922997  0.365681  0.326963  0.483076
    C   C194  0.912269  0.303398  0.333625  -0.309312
    C   C195  0.852280  0.281048  0.335609  -0.033653
    C   C196  0.802674  0.320622  0.330700  -0.211621
    C   C197  0.813059  0.382577  0.323656  -0.035386
    C   C198  0.872961  0.405184  0.321716  -0.280256
    H   H113  0.015941  0.354732  0.333192  0.327780
    H   H114  0.950633  0.271620  0.337462  0.121775
    H   H115  0.844162  0.232362  0.340974  0.100067
    H   H116  0.755651  0.303019  0.332195  0.112700
    H   H117  0.774138  0.413532  0.319513  0.100580
    H   H118  0.879596  0.453743  0.315595  0.118646
    N   N10   0.612117  0.984814  0.324870  -0.681270
    C   C199  0.634320  0.922998  0.326964  0.483093
    C   C200  0.696603  0.912270  0.333626  -0.309279
    C   C201  0.718953  0.852281  0.335611  -0.033804
    C   C202  0.679380  0.802675  0.330702  -0.211504
    C   C203  0.617425  0.813060  0.323658  -0.035219
    C   C204  0.594817  0.872961  0.321716  -0.280424
    H   H119  0.645269  0.015942  0.333192  0.327764
    H   H120  0.728382  0.950635  0.337463  0.121778
    H   H121  0.767639  0.844163  0.340976  0.100114
    H   H122  0.696982  0.755651  0.332197  0.112647
    H   H123  0.586469  0.774140  0.319514  0.100508
    H   H124  0.546260  0.879601  0.315596  0.118696
    N   N11   0.015186  0.612117  0.324870  -0.681344
    C   C205  0.077003  0.634320  0.326965  0.483289
    C   C206  0.087730  0.696603  0.333627  -0.309454
    C   C207  0.147719  0.718953  0.335611  -0.033678
    C   C208  0.197325  0.679379  0.330703  -0.211616
    C   C209  0.186940  0.617425  0.323658  -0.035090
    C   C210  0.127039  0.594817  0.321717  -0.280578
    H   H125  0.984058  0.645269  0.333192  0.327781
    H   H126  0.049366  0.728381  0.337463  0.121811
    H   H127  0.155837  0.767639  0.340976  0.100095
    H   H128  0.244348  0.696982  0.332198  0.112664
    H   H129  0.225861  0.586469  0.319515  0.100483
    H   H130  0.120402  0.546259  0.315596  0.118731
    N   N12   0.387884  0.015186  0.324869  -0.681248
    C   C211  0.365681  0.077002  0.326964  0.483032
    C   C212  0.303398  0.087730  0.333625  -0.309285
    C   C213  0.281047  0.147719  0.335609  -0.033666
    C   C214  0.320621  0.197325  0.330701  -0.211609
    C   C215  0.382576  0.186940  0.323657  -0.035404
    C   C216  0.405184  0.127039  0.321716  -0.280218
    H   H131  0.354732  0.984058  0.333192  0.327774
    H   H132  0.271620  0.049365  0.337462  0.121765
    H   H133  0.232361  0.155836  0.340974  0.100072
    H   H134  0.303017  0.244348  0.332196  0.112700
    H   H135  0.413531  0.225861  0.319513  0.100579
    H   H136  0.453742  0.120404  0.315595  0.118639
    N   N13   0.984816  0.612116  0.675130  -0.681343
    C   C217  0.923000  0.634321  0.673036  0.483209
    C   C218  0.912273  0.696604  0.666374  -0.309449
    C   C219  0.852284  0.718955  0.664390  -0.033551
    C   C220  0.802678  0.679382  0.669298  -0.211687
    C   C221  0.813061  0.617427  0.676343  -0.035328
    C   C222  0.872963  0.594818  0.678284  -0.280343
    H   H137  0.015944  0.645268  0.666808  0.327798
    H   H138  0.950638  0.728381  0.662537  0.121795
    H   H139  0.844168  0.767641  0.659025  0.100056
    H   H140  0.755655  0.696986  0.667804  0.112707
    H   H141  0.774140  0.586472  0.680487  0.100571
    H   H142  0.879597  0.546260  0.684405  0.118668
    N   N14   0.612116  0.015184  0.675131  -0.681342
    C   C223  0.634320  0.077000  0.673037  0.483247
    C   C224  0.696603  0.087727  0.666375  -0.309471
    C   C225  0.718954  0.147716  0.664391  -0.033529
    C   C226  0.679381  0.197322  0.669299  -0.211718
    C   C227  0.617426  0.186938  0.676344  -0.035283
    C   C228  0.594817  0.127037  0.678284  -0.280383
    H   H143  0.645267  0.984056  0.666808  0.327800
    H   H144  0.728380  0.049362  0.662538  0.121798
    H   H145  0.767640  0.155832  0.659026  0.100050
    H   H146  0.696985  0.244345  0.667805  0.112712
    H   H147  0.586471  0.225860  0.680487  0.100556
    H   H148  0.546258  0.120405  0.684405  0.118677
    N   N15   0.015184  0.387884  0.675131  -0.681300
    C   C229  0.077001  0.365679  0.673036  0.483188
    C   C230  0.087728  0.303396  0.666374  -0.309450
    C   C231  0.147716  0.281045  0.664390  -0.033537
    C   C232  0.197323  0.320618  0.669298  -0.211708
    C   C233  0.186939  0.382573  0.676343  -0.035312
    C   C234  0.127038  0.405182  0.678284  -0.280332
    H   H149  0.984056  0.354732  0.666808  0.327782
    H   H150  0.049363  0.271619  0.662538  0.121797
    H   H151  0.155833  0.232359  0.659025  0.100052
    H   H152  0.244346  0.303014  0.667804  0.112717
    H   H153  0.225860  0.413528  0.680486  0.100563
    H   H154  0.120403  0.453740  0.684405  0.118665
    N   N16   0.387883  0.984815  0.675130  -0.681348
    C   C235  0.365679  0.922998  0.673036  0.483301
    C   C236  0.303396  0.912272  0.666374  -0.309453
    C   C237  0.281044  0.852283  0.664389  -0.033687
    C   C238  0.320617  0.802676  0.669297  -0.211599
    C   C239  0.382572  0.813060  0.676342  -0.035119
    C   C240  0.405181  0.872962  0.678283  -0.280581
    H   H155  0.354731  0.015943  0.666808  0.327778
    H   H156  0.271618  0.950637  0.662537  0.121807
    H   H157  0.232358  0.844167  0.659024  0.100100
    H   H158  0.303013  0.755654  0.667802  0.112664
    H   H159  0.413527  0.774139  0.680486  0.100492
    H   H160  0.453739  0.879595  0.684405  0.118737
