# Generated by REPEAT Assigner based on pymatgen
data_DB0-m2_o1_o3_f0_nbo.sym.77_sqe
_audit_creation_date              2022-05-24
_audit_creation_method            REPEAT_Assigner
_cell_length_a                    21.607834
_cell_length_b                    21.607834
_cell_length_c                    38.653790
_cell_angle_alpha                 90.000000
_cell_angle_beta                  90.000000
_cell_angle_gamma                 90.000000
_cell_volume                      18047.395382
_symmetry_space_group_name_H-M    P1
_symmetry_Int_Tables_number       1
loop_
    _symmetry_equiv_pos_site_id
    _symmetry_equiv_pos_as_xyz
    1  x,y,z
loop_
    _atom_site_type_symbol
    _atom_site_label
    _atom_site_fract_x
    _atom_site_fract_y
    _atom_site_fract_z
    _atom_type_partial_charge
    C   C1    0.617355  0.999999  0.500000  0.849997
    C   C2    0.000000  0.499999  0.565586  0.796781
    C   C3    0.454803  0.782217  0.981512  0.227619
    C   C4    0.217783  0.545197  0.018488  0.227580
    C   C5    0.545196  0.782217  0.018488  0.228067
    C   C6    0.782216  0.454804  0.018488  0.227358
    C   C7    0.454803  0.217784  0.018488  0.227033
    C   C8    0.782323  0.954244  0.482048  -0.149408
    C   C9    0.045754  0.782322  0.482048  -0.149327
    C   C10   0.217676  0.045753  0.482048  -0.148682
    C   C11   0.954245  0.217675  0.482048  -0.148834
    C   C12   0.782323  0.045753  0.517952  -0.148997
    C   C13   0.499999  0.999999  0.434414  0.796671
    C   C14   0.045754  0.217675  0.517952  -0.148566
    C   C15   0.217676  0.954244  0.517952  -0.149297
    C   C16   0.954245  0.782322  0.517952  -0.149548
    C   C17   0.282322  0.454246  0.982048  -0.149641
    C   C18   0.545753  0.282324  0.982048  -0.148453
    C   C19   0.717676  0.545755  0.982048  -0.148899
    C   C20   0.454245  0.717677  0.982048  -0.149559
    C   C21   0.282322  0.545755  0.017952  -0.149163
    C   C22   0.545753  0.717677  0.017952  -0.149452
    C   C23   0.717676  0.454246  0.017952  -0.148812
    C   C24   0.999999  0.499998  0.434414  0.796469
    C   C25   0.454245  0.282324  0.017952  -0.149055
    C   C26   0.814298  0.999999  0.500000  -0.186468
    C   C27   0.999999  0.814297  0.500000  -0.186171
    C   C28   0.185701  0.999999  0.500000  -0.187053
    C   C29   0.999999  0.185700  0.500000  -0.187378
    C   C30   0.314297  0.500000  0.000000  -0.186188
    C   C31   0.499999  0.314299  0.000000  -0.187012
    C   C32   0.685701  0.500000  0.000000  -0.187128
    C   C33   0.499999  0.685702  0.000000  -0.186168
    C   C34   0.685542  0.999999  0.500000  -0.335709
    C   C35   0.999999  0.500000  0.065586  0.796329
    C   C36   0.999999  0.685541  0.500000  -0.336299
    C   C37   0.314457  0.999999  0.500000  -0.335692
    C   C38   0.999999  0.314456  0.500000  -0.335421
    C   C39   0.185542  0.500000  0.000000  -0.336090
    C   C40   0.499999  0.185543  0.000000  -0.335676
    C   C41   0.814457  0.500000  0.000000  -0.335595
    C   C42   0.499999  0.814458  0.000000  -0.336140
    C   C43   0.999999  0.117776  0.500000  0.952312
    C   C44   0.882222  0.999999  0.500000  0.951691
    C   C45   0.999999  0.882221  0.500000  0.951536
    C   C46   0.499999  0.000000  0.065586  0.796314
    C   C47   0.117777  0.999999  0.500000  0.952374
    C   C48   0.499999  0.617778  0.000000  0.951739
    C   C49   0.382221  0.500000  0.000000  0.951403
    C   C50   0.499999  0.382223  0.000000  0.952097
    C   C51   0.617777  0.500000  0.000000  0.952263
    C   C52   0.538894  0.890825  0.897140  0.334539
    C   C53   0.109174  0.538895  0.897140  0.335347
    C   C54   0.461105  0.109175  0.897140  0.335677
    C   C55   0.890824  0.461106  0.897140  0.335367
    C   C56   0.538894  0.109176  0.102860  0.335288
    C   C57   0.999999  0.500000  0.934414  0.796608
    C   C58   0.109174  0.461105  0.102860  0.335200
    C   C59   0.461104  0.890825  0.102860  0.335843
    C   C60   0.890824  0.538895  0.102860  0.335230
    C   C61   0.038893  0.390823  0.397140  0.335116
    C   C62   0.609174  0.038894  0.397140  0.334600
    C   C63   0.961104  0.609174  0.397140  0.335799
    C   C64   0.390824  0.961104  0.397140  0.335686
    C   C65   0.038894  0.609174  0.602860  0.334913
    C   C66   0.609174  0.961103  0.602860  0.335932
    C   C67   0.961105  0.390823  0.602860  0.335443
    C   C68   0.499999  0.000000  0.934414  0.796367
    C   C69   0.390824  0.038893  0.602860  0.334990
    C   C70   0.683347  0.906540  0.460906  0.177346
    C   C71   0.093458  0.683346  0.460906  0.177273
    C   C72   0.316651  0.093457  0.460906  0.176938
    C   C73   0.906541  0.316651  0.460906  0.176598
    C   C74   0.683347  0.093457  0.539094  0.177476
    C   C75   0.093458  0.316651  0.539094  0.176838
    C   C76   0.316651  0.906540  0.539094  0.176641
    C   C77   0.906541  0.683346  0.539094  0.176882
    C   C78   0.183347  0.406542  0.960906  0.176870
    C   C79   0.517671  0.947541  0.878499  -0.011313
    C   C80   0.593458  0.183348  0.960906  0.176749
    C   C81   0.816651  0.593459  0.960906  0.176586
    C   C82   0.406540  0.816652  0.960906  0.176557
    C   C83   0.183347  0.593459  0.039094  0.176981
    C   C84   0.593458  0.816652  0.039094  0.176648
    C   C85   0.816651  0.406542  0.039094  0.176848
    C   C86   0.406541  0.183348  0.039094  0.177052
    C   C87   0.817462  0.904707  0.462844  0.324690
    C   C88   0.095291  0.817461  0.462844  0.323852
    C   C89   0.182536  0.095291  0.462845  0.323554
    C   C90   0.052458  0.517672  0.878499  -0.011128
    C   C91   0.904707  0.182536  0.462845  0.324469
    C   C92   0.817462  0.095290  0.537156  0.323152
    C   C93   0.095291  0.182536  0.537155  0.323882
    C   C94   0.182536  0.904707  0.537155  0.325000
    C   C95   0.904707  0.817461  0.537155  0.324554
    C   C96   0.317462  0.404708  0.962844  0.324562
    C   C97   0.595291  0.317463  0.962844  0.323137
    C   C98   0.682536  0.595292  0.962845  0.324252
    C   C99   0.404707  0.682538  0.962845  0.324780
    C   C100  0.317462  0.595292  0.037156  0.324022
    C   C101  0.482328  0.052459  0.878498  -0.010937
    C   C102  0.595291  0.682538  0.037155  0.324017
    C   C103  0.682536  0.404708  0.037155  0.324138
    C   C104  0.404707  0.317463  0.037155  0.324490
    C   C105  0.999999  0.617354  0.500000  0.850561
    C   C106  0.947540  0.482329  0.878499  -0.011152
    C   C107  0.517670  0.052459  0.121502  -0.011808
    C   C108  0.052458  0.482329  0.121501  -0.010571
    C   C109  0.482328  0.947541  0.121501  -0.011497
    C   C110  0.947540  0.517671  0.121501  -0.011938
    C   C111  0.017670  0.447539  0.378499  -0.011915
    C   C112  0.552458  0.017670  0.378499  -0.010516
    C   C113  0.982327  0.552458  0.378499  -0.010932
    C   C114  0.447540  0.982328  0.378499  -0.011591
    C   C115  0.017671  0.552458  0.621501  -0.010874
    C   C116  0.382643  0.999999  0.500000  0.849899
    C   C117  0.552458  0.982327  0.621501  -0.011152
    C   C118  0.982329  0.447540  0.621502  -0.011826
    C   C119  0.447540  0.017670  0.621501  -0.011631
    C   C120  0.515835  0.947200  0.842785  -0.245935
    C   C121  0.052799  0.515836  0.842785  -0.246444
    C   C122  0.484163  0.052799  0.842784  -0.246690
    C   C123  0.947200  0.484164  0.842785  -0.246305
    C   C124  0.515835  0.052800  0.157216  -0.245845
    C   C125  0.052798  0.484164  0.157215  -0.246831
    C   C126  0.484163  0.947201  0.157215  -0.246470
    C   C127  0.999999  0.382643  0.500000  0.849971
    C   C128  0.947199  0.515836  0.157215  -0.245772
    C   C129  0.015835  0.447199  0.342784  -0.245666
    C   C130  0.552799  0.015835  0.342785  -0.246528
    C   C131  0.984163  0.552798  0.342785  -0.246842
    C   C132  0.447200  0.984163  0.342785  -0.246236
    C   C133  0.015836  0.552799  0.657215  -0.246474
    C   C134  0.552799  0.984163  0.657215  -0.246813
    C   C135  0.984164  0.447200  0.657216  -0.245919
    C   C136  0.447200  0.015835  0.657215  -0.245783
    C   C137  0.499999  0.000000  0.824504  0.114216
    C   C138  0.117355  0.500000  0.000000  0.850254
    C   C139  0.999999  0.500000  0.824504  0.114222
    C   C140  0.499999  0.000000  0.175497  0.114182
    C   C141  0.999999  0.500000  0.175497  0.114106
    C   C142  0.999999  0.499999  0.324504  0.114196
    C   C143  0.499999  0.999999  0.324504  0.114253
    C   C144  0.000000  0.499999  0.675497  0.114094
    C   C145  0.499999  0.999999  0.675497  0.114174
    C   C146  0.499999  0.000000  0.896539  -0.076566
    C   C147  0.999999  0.500001  0.896539  -0.076498
    C   C148  0.499999  0.000000  0.103461  -0.076040
    C   C149  0.499999  0.117356  0.000000  0.850207
    C   C150  0.999999  0.500000  0.103461  -0.076296
    C   C151  0.999999  0.499999  0.396539  -0.076344
    C   C152  0.499999  0.999999  0.396539  -0.076597
    C   C153  0.000000  0.499999  0.603461  -0.076448
    C   C154  0.499999  0.999998  0.603461  -0.076263
    C   C155  0.460615  0.038402  0.767822  -0.145949
    C   C156  0.961597  0.460616  0.767823  -0.146542
    C   C157  0.539383  0.961596  0.767823  -0.147384
    C   C158  0.038402  0.539384  0.767822  -0.146729
    C   C159  0.460615  0.961597  0.232177  -0.146332
    C   C160  0.882643  0.500000  0.000000  0.850111
    C   C161  0.961596  0.539383  0.232178  -0.147590
    C   C162  0.539383  0.038403  0.232178  -0.146901
    C   C163  0.038401  0.460615  0.232177  -0.145854
    C   C164  0.960615  0.538402  0.267823  -0.145798
    C   C165  0.461596  0.960615  0.267822  -0.146908
    C   C166  0.039383  0.461596  0.267822  -0.147453
    C   C167  0.538402  0.039384  0.267823  -0.146398
    C   C168  0.960616  0.461597  0.732178  -0.146795
    C   C169  0.461596  0.039383  0.732177  -0.147341
    C   C170  0.039384  0.538402  0.732177  -0.146651
    C   C171  0.499999  0.882644  0.000000  0.850242
    C   C172  0.538402  0.960615  0.732178  -0.145961
    C   C173  0.499999  0.999999  0.713802  0.084247
    C   C174  0.000000  0.499999  0.713802  0.084412
    C   C175  0.499999  0.999999  0.286198  0.084084
    C   C176  0.999999  0.499999  0.286198  0.084153
    C   C177  0.999999  0.499999  0.213802  0.084375
    C   C178  0.499999  0.000000  0.213802  0.084204
    C   C179  0.000000  0.500000  0.786198  0.084164
    C   C180  0.499999  0.999999  0.786198  0.084159
    C   C181  0.717783  0.954802  0.481512  0.227040
    C   C182  0.499999  0.999998  0.565586  0.796744
    C   C183  0.045196  0.717782  0.481512  0.227830
    C   C184  0.282216  0.045195  0.481512  0.227713
    C   C185  0.954803  0.282215  0.481512  0.227183
    C   C186  0.717783  0.045195  0.518488  0.227608
    C   C187  0.045196  0.282215  0.518488  0.227358
    C   C188  0.282216  0.954802  0.518488  0.227261
    C   C189  0.954803  0.717782  0.518488  0.227567
    C   C190  0.217783  0.454804  0.981512  0.227843
    C   C191  0.545195  0.217784  0.981512  0.227610
    C   C192  0.782216  0.545197  0.981512  0.227434
    Cu  Cu1   0.499999  0.060427  0.500000  0.867038
    Cu  Cu2   0.999999  0.999999  0.533888  0.845895
    Cu  Cu3   0.499999  0.500000  0.966112  0.846012
    Cu  Cu4   0.499999  0.500000  0.033888  0.845857
    Cu  Cu5   0.939571  0.499999  0.500000  0.866907
    Cu  Cu6   0.499999  0.939571  0.500000  0.866787
    Cu  Cu7   0.060427  0.499999  0.500000  0.866972
    Cu  Cu8   0.999999  0.560428  0.000000  0.866814
    Cu  Cu9   0.439571  0.000000  0.000000  0.866818
    Cu  Cu10  0.999999  0.439572  0.000000  0.866899
    Cu  Cu11  0.560427  0.000000  0.000000  0.867007
    Cu  Cu12  0.999999  0.999999  0.466112  0.845827
    H   H1    0.526608  0.904767  0.829396  0.115481
    H   H2    0.595232  0.026608  0.329396  0.115156
    H   H3    0.363502  0.921310  0.546720  0.005133
    H   H4    0.320199  0.818662  0.537404  0.396141
    H   H5    0.897062  0.706776  0.563979  0.040593
    H   H6    0.921311  0.636496  0.546720  0.005411
    H   H7    0.818663  0.679799  0.537404  0.396187
    H   H8    0.206776  0.397064  0.936021  0.040668
    H   H9    0.136497  0.421312  0.953280  0.005362
    H   H10   0.179799  0.318664  0.962595  0.396157
    H   H11   0.602936  0.206777  0.936021  0.040667
    H   H12   0.578687  0.136498  0.953280  0.005307
    H   H13   0.973390  0.595232  0.329396  0.114850
    H   H14   0.681336  0.179801  0.962596  0.396141
    H   H15   0.793222  0.602937  0.936021  0.040792
    H   H16   0.863502  0.578689  0.953280  0.005204
    H   H17   0.820199  0.681337  0.962596  0.396128
    H   H18   0.397062  0.793223  0.936021  0.040783
    H   H19   0.421311  0.863503  0.953280  0.005233
    H   H20   0.318662  0.820200  0.962596  0.396198
    H   H21   0.206776  0.602937  0.063979  0.040632
    H   H22   0.136497  0.578688  0.046720  0.005349
    H   H23   0.179799  0.681337  0.037405  0.396186
    H   H24   0.404766  0.973391  0.329396  0.115248
    H   H25   0.602936  0.793223  0.063979  0.040618
    H   H26   0.578687  0.863503  0.046720  0.005465
    H   H27   0.681336  0.820200  0.037404  0.396154
    H   H28   0.793222  0.397063  0.063979  0.040653
    H   H29   0.863501  0.421312  0.046720  0.005138
    H   H30   0.820199  0.318664  0.037404  0.396141
    H   H31   0.397062  0.206777  0.063979  0.040642
    H   H32   0.421311  0.136498  0.046720  0.005109
    H   H33   0.318663  0.179801  0.037404  0.396141
    H   H34   0.795210  0.858886  0.465800  0.006347
    H   H35   0.026608  0.595232  0.670604  0.115136
    H   H36   0.864610  0.897608  0.472873  -0.054660
    H   H37   0.866347  0.922640  0.423191  0.380081
    H   H38   0.141112  0.795210  0.465800  0.006337
    H   H39   0.102390  0.864610  0.472873  -0.054719
    H   H40   0.077359  0.866346  0.423191  0.379779
    H   H41   0.204788  0.141111  0.465800  0.006537
    H   H42   0.135388  0.102389  0.472873  -0.054659
    H   H43   0.133651  0.077357  0.423191  0.380129
    H   H44   0.858887  0.204788  0.465800  0.006619
    H   H45   0.897608  0.135387  0.472873  -0.054748
    H   H46   0.595232  0.973390  0.670604  0.114897
    H   H47   0.922640  0.133650  0.423191  0.380413
    H   H48   0.795210  0.141111  0.534200  0.006413
    H   H49   0.864610  0.102389  0.527128  -0.054534
    H   H50   0.866347  0.077358  0.576809  0.379903
    H   H51   0.141112  0.204788  0.534200  0.006622
    H   H52   0.102390  0.135387  0.527127  -0.054736
    H   H53   0.077358  0.133651  0.576809  0.380306
    H   H54   0.204788  0.858886  0.534200  0.006505
    H   H55   0.135388  0.897608  0.527127  -0.054835
    H   H56   0.133651  0.922640  0.576809  0.380337
    H   H57   0.973392  0.404766  0.670604  0.115223
    H   H58   0.858887  0.795209  0.534200  0.006364
    H   H59   0.897608  0.864610  0.527127  -0.054766
    H   H60   0.922640  0.866347  0.576809  0.379919
    H   H61   0.295210  0.358888  0.965800  0.006246
    H   H62   0.364610  0.397610  0.972873  -0.054829
    H   H63   0.366347  0.422641  0.923191  0.379863
    H   H64   0.641112  0.295211  0.965800  0.006633
    H   H65   0.602390  0.364612  0.972873  -0.054544
    H   H66   0.577358  0.366348  0.923191  0.380009
    H   H67   0.704788  0.641113  0.965800  0.006517
    H   H68   0.404766  0.026607  0.670604  0.115480
    H   H69   0.635388  0.602391  0.972873  -0.054599
    H   H70   0.633651  0.577360  0.923191  0.380284
    H   H71   0.358887  0.704789  0.965800  0.006457
    H   H72   0.397608  0.635389  0.972873  -0.054852
    H   H73   0.422640  0.633652  0.923191  0.380142
    H   H74   0.295210  0.641113  0.034200  0.006364
    H   H75   0.364610  0.602391  0.027128  -0.054594
    H   H76   0.366347  0.577359  0.076809  0.379919
    H   H77   0.641112  0.704789  0.034200  0.006456
    H   H78   0.602390  0.635389  0.027127  -0.054788
    H   H79   0.427759  0.068008  0.780777  0.115007
    H   H80   0.577358  0.633653  0.076809  0.379955
    H   H81   0.704788  0.358888  0.034200  0.006507
    H   H82   0.635388  0.397609  0.027127  -0.054780
    H   H83   0.633651  0.422641  0.076809  0.380212
    H   H84   0.358887  0.295211  0.034200  0.006444
    H   H85   0.397608  0.364612  0.027127  -0.054657
    H   H86   0.422640  0.366348  0.076809  0.380232
    H   H87   0.931991  0.427760  0.780777  0.114842
    H   H88   0.572240  0.931991  0.780777  0.114752
    H   H89   0.095232  0.526609  0.829396  0.115152
    H   H90   0.068008  0.572240  0.780777  0.114872
    H   H91   0.427759  0.931992  0.219223  0.114999
    H   H92   0.931991  0.572240  0.219223  0.114786
    H   H93   0.572239  0.068008  0.219223  0.114698
    H   H94   0.068007  0.427759  0.219223  0.114971
    H   H95   0.927758  0.568007  0.280777  0.115063
    H   H96   0.431991  0.927759  0.280777  0.114973
    H   H97   0.072239  0.431991  0.280777  0.114665
    H   H98   0.568007  0.072240  0.280777  0.114811
    H   H99   0.927759  0.431991  0.719223  0.114871
    H   H100  0.473391  0.095233  0.829396  0.114990
    H   H101  0.431991  0.072239  0.719223  0.114699
    H   H102  0.072240  0.568008  0.719223  0.114873
    H   H103  0.568007  0.927759  0.719223  0.115038
    H   H104  0.546253  0.852284  0.878687  -0.012390
    H   H105  0.503539  0.875943  0.916033  -0.071643
    H   H106  0.623465  0.915054  0.895582  0.363575
    H   H107  0.147715  0.546255  0.878687  -0.012441
    H   H108  0.124056  0.503540  0.916032  -0.072178
    H   H109  0.084945  0.623466  0.895582  0.364009
    H   H110  0.453745  0.147716  0.878686  -0.012386
    H   H111  0.904766  0.473392  0.829396  0.115275
    H   H112  0.496460  0.124057  0.916032  -0.072227
    H   H113  0.376534  0.084946  0.895582  0.363948
    H   H114  0.852283  0.453746  0.878686  -0.012356
    H   H115  0.875943  0.496461  0.916032  -0.071923
    H   H116  0.915053  0.376535  0.895582  0.363659
    H   H117  0.546253  0.147716  0.121314  -0.012354
    H   H118  0.503538  0.124057  0.083968  -0.071806
    H   H119  0.623465  0.084946  0.104418  0.363579
    H   H120  0.147715  0.453746  0.121314  -0.012290
    H   H121  0.124056  0.496461  0.083968  -0.072251
    H   H122  0.526607  0.095233  0.170604  0.115333
    H   H123  0.084945  0.376534  0.104418  0.363971
    H   H124  0.453745  0.852284  0.121313  -0.012425
    H   H125  0.496459  0.875944  0.083967  -0.072334
    H   H126  0.376533  0.915054  0.104418  0.364015
    H   H127  0.852283  0.546254  0.121314  -0.012344
    H   H128  0.875942  0.503540  0.083968  -0.071767
    H   H129  0.915053  0.623466  0.104418  0.363728
    H   H130  0.046253  0.352282  0.378686  -0.012359
    H   H131  0.003538  0.375942  0.416032  -0.071476
    H   H132  0.123465  0.415052  0.395582  0.363432
    H   H133  0.095232  0.473391  0.170604  0.114885
    H   H134  0.647715  0.046253  0.378686  -0.012288
    H   H135  0.624056  0.003539  0.416032  -0.071890
    H   H136  0.584945  0.123465  0.395582  0.363792
    H   H137  0.953745  0.647715  0.378687  -0.012438
    H   H138  0.996459  0.624055  0.416033  -0.072522
    H   H139  0.876533  0.584945  0.395582  0.364177
    H   H140  0.352283  0.953745  0.378686  -0.012401
    H   H141  0.375943  0.996459  0.416032  -0.072099
    H   H142  0.415053  0.876533  0.395582  0.363909
    H   H143  0.046254  0.647715  0.621313  -0.012378
    H   H144  0.473391  0.904767  0.170604  0.115044
    H   H145  0.003539  0.624055  0.583967  -0.072028
    H   H146  0.123466  0.584945  0.604418  0.363778
    H   H147  0.647715  0.953744  0.621314  -0.012402
    H   H148  0.624056  0.996459  0.583968  -0.072584
    H   H149  0.584945  0.876532  0.604418  0.364184
    H   H150  0.953746  0.352283  0.621314  -0.012310
    H   H151  0.996460  0.375942  0.583968  -0.071871
    H   H152  0.876534  0.415053  0.604418  0.363701
    H   H153  0.352283  0.046253  0.621314  -0.012322
    H   H154  0.375943  0.003538  0.583968  -0.071642
    H   H155  0.904766  0.526608  0.170604  0.115460
    H   H156  0.415053  0.123464  0.604418  0.363507
    H   H157  0.706776  0.897062  0.436021  0.040565
    H   H158  0.636497  0.921311  0.453280  0.005145
    H   H159  0.679799  0.818662  0.462595  0.396180
    H   H160  0.102936  0.706776  0.436021  0.040435
    H   H161  0.078687  0.636496  0.453280  0.005393
    H   H162  0.181336  0.679799  0.462596  0.396165
    H   H163  0.293222  0.102936  0.436021  0.040566
    H   H164  0.363502  0.078687  0.453280  0.005287
    H   H165  0.320199  0.181335  0.462596  0.396093
    H   H166  0.026607  0.404766  0.329396  0.115573
    H   H167  0.897062  0.293221  0.436021  0.040782
    H   H168  0.921311  0.363501  0.453280  0.005049
    H   H169  0.818663  0.320198  0.462596  0.396135
    H   H170  0.706776  0.102935  0.563979  0.040374
    H   H171  0.636497  0.078687  0.546720  0.005407
    H   H172  0.679800  0.181335  0.537405  0.396106
    H   H173  0.102936  0.293221  0.563979  0.040664
    H   H174  0.078688  0.363501  0.546720  0.005117
    H   H175  0.181336  0.320198  0.537404  0.396094
    H   H176  0.293222  0.897062  0.563979  0.040778
    O   O1    0.588183  0.050955  0.490307  -0.451593
    O   O2    0.449043  0.088184  0.990307  -0.451317
    O   O3    0.911815  0.449044  0.990307  -0.451445
    O   O4    0.550955  0.911817  0.990307  -0.451571
    O   O5    0.088183  0.449044  0.009693  -0.451420
    O   O6    0.449043  0.911817  0.009693  -0.451279
    O   O7    0.911815  0.550956  0.009693  -0.451460
    O   O8    0.550955  0.088184  0.009693  -0.451713
    O   O9    0.517362  0.050995  0.549400  -0.616362
    O   O10   0.949003  0.517362  0.549400  -0.615828
    O   O11   0.482636  0.949002  0.549400  -0.615124
    O   O12   0.949043  0.588182  0.490307  -0.451357
    O   O13   0.050996  0.482636  0.549400  -0.615604
    O   O14   0.517362  0.949002  0.450600  -0.615480
    O   O15   0.949002  0.482636  0.450600  -0.615069
    O   O16   0.482636  0.050995  0.450600  -0.615898
    O   O17   0.050996  0.517361  0.450600  -0.616163
    O   O18   0.017362  0.550997  0.049400  -0.615712
    O   O19   0.449002  0.017363  0.049400  -0.615272
    O   O20   0.982636  0.449003  0.049400  -0.615398
    O   O21   0.550996  0.982637  0.049400  -0.615944
    O   O22   0.017362  0.449004  0.950600  -0.615977
    O   O23   0.411816  0.949042  0.490307  -0.451164
    O   O24   0.449002  0.982637  0.950600  -0.615269
    O   O25   0.982636  0.550997  0.950600  -0.615373
    O   O26   0.550996  0.017363  0.950600  -0.615819
    O   O27   0.015677  0.088746  0.471285  -0.621485
    O   O28   0.911252  0.015676  0.471285  -0.621377
    O   O29   0.984321  0.911251  0.471285  -0.620939
    O   O30   0.088747  0.984321  0.471285  -0.621073
    O   O31   0.015677  0.911251  0.528715  -0.621312
    O   O32   0.911252  0.984321  0.528715  -0.620904
    O   O33   0.984321  0.088746  0.528715  -0.621185
    O   O34   0.050955  0.411815  0.490307  -0.451681
    O   O35   0.088747  0.015676  0.528715  -0.621700
    O   O36   0.515677  0.588748  0.971285  -0.621548
    O   O37   0.411252  0.515678  0.971285  -0.621112
    O   O38   0.484321  0.411253  0.971285  -0.621020
    O   O39   0.588746  0.484323  0.971285  -0.621527
    O   O40   0.515677  0.411253  0.028715  -0.621439
    O   O41   0.411252  0.484322  0.028715  -0.621158
    O   O42   0.484321  0.588748  0.028715  -0.621045
    O   O43   0.588747  0.515678  0.028715  -0.621235
    O   O44   0.594465  0.902860  0.914199  -0.593289
    O   O45   0.588183  0.949042  0.509693  -0.451140
    O   O46   0.097139  0.594466  0.914198  -0.593884
    O   O47   0.405534  0.097140  0.914198  -0.593886
    O   O48   0.902859  0.405535  0.914198  -0.593597
    O   O49   0.594464  0.097141  0.085802  -0.593604
    O   O50   0.097139  0.405534  0.085802  -0.593925
    O   O51   0.405533  0.902860  0.085802  -0.593801
    O   O52   0.902859  0.594466  0.085802  -0.593444
    O   O53   0.094464  0.402858  0.414198  -0.593343
    O   O54   0.597139  0.094465  0.414198  -0.593745
    O   O55   0.905533  0.597139  0.414198  -0.594047
    O   O56   0.949043  0.411815  0.509693  -0.451431
    O   O57   0.402859  0.905533  0.414198  -0.593598
    O   O58   0.094465  0.597139  0.585801  -0.593664
    O   O59   0.597139  0.905533  0.585802  -0.594033
    O   O60   0.905534  0.402859  0.585802  -0.593498
    O   O61   0.402859  0.094464  0.585802  -0.593483
    O   O62   0.678937  0.852074  0.480109  -0.627116
    O   O63   0.147924  0.678937  0.480109  -0.627468
    O   O64   0.321061  0.147923  0.480109  -0.627493
    O   O65   0.852074  0.321060  0.480109  -0.627031
    O   O66   0.678937  0.147923  0.519891  -0.627571
    O   O67   0.411816  0.050955  0.509693  -0.451587
    O   O68   0.147924  0.321060  0.519891  -0.627321
    O   O69   0.321061  0.852074  0.519891  -0.626971
    O   O70   0.852074  0.678937  0.519891  -0.627103
    O   O71   0.178937  0.352075  0.980109  -0.627276
    O   O72   0.647924  0.178939  0.980109  -0.627394
    O   O73   0.821061  0.647925  0.980109  -0.627129
    O   O74   0.352074  0.821062  0.980109  -0.627051
    O   O75   0.178937  0.647925  0.019891  -0.627258
    O   O76   0.647924  0.821062  0.019891  -0.627367
    O   O77   0.821061  0.352075  0.019891  -0.627239
    O   O78   0.050955  0.588182  0.509693  -0.451603
    O   O79   0.352074  0.178938  0.019891  -0.627076
    O   O80   0.821382  0.920168  0.427885  -0.628714
    O   O81   0.079830  0.821381  0.427885  -0.628158
    O   O82   0.178617  0.079830  0.427885  -0.628536
    O   O83   0.920168  0.178616  0.427885  -0.629101
    O   O84   0.821382  0.079830  0.572116  -0.627947
    O   O85   0.079831  0.178616  0.572115  -0.628836
    O   O86   0.178617  0.920167  0.572115  -0.629120
    O   O87   0.920168  0.821381  0.572115  -0.628546
    O   O88   0.321381  0.420169  0.927885  -0.628429
    O   O89   0.088183  0.550956  0.990307  -0.451418
    O   O90   0.579830  0.321382  0.927885  -0.628337
    O   O91   0.678617  0.579832  0.927885  -0.628921
    O   O92   0.420167  0.678618  0.927885  -0.628845
    O   O93   0.321381  0.579831  0.072115  -0.628407
    O   O94   0.579831  0.678618  0.072115  -0.628439
    O   O95   0.678617  0.420169  0.072115  -0.628768
    O   O96   0.420168  0.321383  0.072115  -0.628900
