# Generated by REPEAT Assigner based on pymatgen
data_DB0-m2_o1_o3_f0_nbo.sym.91_sqe
_audit_creation_date              2022-05-24
_audit_creation_method            REPEAT_Assigner
_cell_length_a                    21.553891
_cell_length_b                    21.553891
_cell_length_c                    38.514839
_cell_angle_alpha                 90.000000
_cell_angle_beta                  90.000000
_cell_angle_gamma                 90.000000
_cell_volume                      17892.846430
_symmetry_space_group_name_H-M    P1
_symmetry_Int_Tables_number       1
loop_
    _symmetry_equiv_pos_site_id
    _symmetry_equiv_pos_as_xyz
    1  x,y,z
loop_
    _atom_site_type_symbol
    _atom_site_label
    _atom_site_fract_x
    _atom_site_fract_y
    _atom_site_fract_z
    _atom_type_partial_charge
    O   O1    0.588576  0.051348  0.490742  -0.643035
    O   O2    0.948652  0.588576  0.490742  -0.643172
    O   O3    0.411424  0.948652  0.490742  -0.643037
    O   O4    0.051348  0.411424  0.490742  -0.643148
    O   O5    0.588576  0.948652  0.509258  -0.643045
    O   O6    0.948652  0.411424  0.509258  -0.643165
    O   O7    0.411424  0.051348  0.509258  -0.643021
    O   O8    0.051348  0.588576  0.509258  -0.643162
    O   O9    0.088576  0.551348  0.990742  -0.643288
    O   O10   0.448652  0.088576  0.990742  -0.643109
    O   O11   0.911424  0.448652  0.990742  -0.643306
    O   O12   0.551348  0.911425  0.990742  -0.643113
    O   O13   0.088576  0.448652  0.009258  -0.643293
    O   O14   0.448652  0.911425  0.009258  -0.643122
    O   O15   0.911424  0.551348  0.009258  -0.643290
    O   O16   0.551348  0.088576  0.009258  -0.643110
    C   C1    0.617609  0.000000  0.500000  0.903168
    C   C2    0.000000  0.617609  0.500000  0.903430
    C   C3    0.382391  0.000000  0.500000  0.903156
    C   C4    0.000000  0.382391  0.500000  0.903421
    C   C5    0.117609  0.500000  0.000000  0.903628
    C   C6    0.500000  0.117609  0.000000  0.903240
    C   C7    0.882391  0.500000  0.000000  0.903649
    C   C8    0.500000  0.882391  0.000000  0.903211
    O   O17   0.516525  0.051348  0.549660  -0.455558
    O   O18   0.948652  0.516525  0.549660  -0.455551
    O   O19   0.483475  0.948652  0.549660  -0.455587
    O   O20   0.051348  0.483475  0.549660  -0.455527
    O   O21   0.516525  0.948652  0.450340  -0.455595
    O   O22   0.948652  0.483475  0.450340  -0.455557
    O   O23   0.483475  0.051348  0.450340  -0.455575
    O   O24   0.051348  0.516525  0.450340  -0.455526
    O   O25   0.016525  0.551348  0.049660  -0.455515
    O   O26   0.448652  0.016526  0.049660  -0.455595
    O   O27   0.983475  0.448653  0.049660  -0.455560
    O   O28   0.551348  0.983475  0.049660  -0.455579
    O   O29   0.016525  0.448653  0.950340  -0.455539
    O   O30   0.448652  0.983475  0.950340  -0.455588
    O   O31   0.983475  0.551348  0.950340  -0.455545
    O   O32   0.551348  0.016526  0.950340  -0.455561
    C   C9    0.500000  0.000000  0.565900  0.367598
    C   C10   0.000000  0.500000  0.565900  0.367546
    C   C11   0.500000  0.000000  0.434100  0.367665
    C   C12   0.000000  0.500000  0.434100  0.367514
    C   C13   0.000000  0.500000  0.065900  0.367542
    C   C14   0.500000  0.000000  0.065900  0.367730
    C   C15   0.000000  0.500000  0.934100  0.367648
    C   C16   0.500000  0.000000  0.934100  0.367691
    Cu  Cu1   0.500000  0.060743  0.500000  0.897730
    Cu  Cu2   0.939257  0.500000  0.500000  0.897643
    Cu  Cu3   0.500000  0.939257  0.500000  0.897741
    Cu  Cu4   0.060743  0.500000  0.500000  0.897611
    Cu  Cu5   0.000000  0.560743  0.000000  0.897454
    Cu  Cu6   0.439257  0.000000  0.000000  0.897643
    Cu  Cu7   0.000000  0.439258  0.000000  0.897473
    Cu  Cu8   0.560743  0.000000  0.000000  0.897599
    C   C17   0.554870  0.993206  0.878175  -0.110346
    C   C18   0.006794  0.554871  0.878175  -0.110224
    C   C19   0.445130  0.006794  0.878175  -0.110231
    C   C20   0.993206  0.445130  0.878175  -0.110209
    C   C21   0.554870  0.006794  0.121825  -0.110274
    C   C22   0.006794  0.445130  0.121825  -0.110397
    C   C23   0.445130  0.993206  0.121825  -0.110275
    C   C24   0.993206  0.554871  0.121825  -0.110672
    C   C25   0.054870  0.493206  0.378175  -0.110468
    C   C26   0.506794  0.054870  0.378175  -0.110455
    C   C27   0.945130  0.506794  0.378175  -0.110385
    C   C28   0.493206  0.945130  0.378175  -0.110452
    C   C29   0.054870  0.506794  0.621825  -0.110407
    C   C30   0.506794  0.945130  0.621825  -0.110425
    C   C31   0.945130  0.493206  0.621825  -0.110397
    C   C32   0.493206  0.054870  0.621825  -0.110522
    H   H1    0.598286  0.987760  0.891865  0.089368
    H   H2    0.012240  0.598286  0.891865  0.089293
    H   H3    0.401714  0.012240  0.891865  0.089341
    H   H4    0.987760  0.401715  0.891865  0.089284
    H   H5    0.598286  0.012240  0.108135  0.089359
    H   H6    0.012240  0.401714  0.108136  0.089305
    H   H7    0.401714  0.987760  0.108135  0.089363
    H   H8    0.987760  0.598286  0.108135  0.089363
    H   H9    0.098286  0.487760  0.391865  0.089337
    H   H10   0.512240  0.098286  0.391865  0.089386
    H   H11   0.901714  0.512240  0.391864  0.089321
    H   H12   0.487760  0.901714  0.391865  0.089389
    H   H13   0.098286  0.512240  0.608135  0.089329
    H   H14   0.512240  0.901714  0.608135  0.089368
    H   H15   0.901714  0.487760  0.608135  0.089330
    H   H16   0.487760  0.098286  0.608135  0.089393
    C   C33   0.554909  0.993202  0.842409  -0.099593
    C   C34   0.006798  0.554909  0.842409  -0.099612
    C   C35   0.445092  0.006799  0.842409  -0.099674
    C   C36   0.993202  0.445092  0.842409  -0.099617
    C   C37   0.554909  0.006799  0.157591  -0.099635
    C   C38   0.006798  0.445092  0.157591  -0.099434
    C   C39   0.445092  0.993202  0.157591  -0.099636
    C   C40   0.993202  0.554909  0.157591  -0.099247
    C   C41   0.054909  0.493202  0.342409  -0.099600
    C   C42   0.506799  0.054909  0.342409  -0.099637
    C   C43   0.945092  0.506799  0.342409  -0.099672
    C   C44   0.493202  0.945092  0.342409  -0.099640
    C   C45   0.054909  0.506799  0.657591  -0.099629
    C   C46   0.506798  0.945092  0.657591  -0.099663
    C   C47   0.945092  0.493202  0.657591  -0.099643
    C   C48   0.493202  0.054909  0.657591  -0.099594
    H   H17   0.598686  0.989219  0.828947  0.080058
    H   H18   0.010782  0.598687  0.828948  0.080003
    H   H19   0.401314  0.010782  0.828947  0.080077
    H   H20   0.989218  0.401314  0.828947  0.080002
    H   H21   0.598686  0.010782  0.171053  0.080069
    H   H22   0.010782  0.401315  0.171053  0.079972
    H   H23   0.401314  0.989219  0.171053  0.080069
    H   H24   0.989218  0.598687  0.171053  0.079941
    H   H25   0.098687  0.489218  0.328947  0.080066
    H   H26   0.510782  0.098686  0.328947  0.080125
    H   H27   0.901314  0.510782  0.328947  0.080087
    H   H28   0.489218  0.901314  0.328947  0.080122
    H   H29   0.098686  0.510782  0.671053  0.080075
    H   H30   0.510782  0.901314  0.671053  0.080131
    H   H31   0.901314  0.489218  0.671052  0.080078
    H   H32   0.489218  0.098686  0.671053  0.080114
    C   C49   0.500000  0.000000  0.824233  0.084667
    C   C50   0.000000  0.500000  0.824233  0.084685
    C   C51   0.500000  0.000000  0.175767  0.084658
    C   C52   0.000000  0.500000  0.175767  0.084464
    C   C53   0.000000  0.500000  0.324233  0.084800
    C   C54   0.500000  0.000000  0.324233  0.084732
    C   C55   0.000000  0.500000  0.675767  0.084790
    C   C56   0.500000  0.000000  0.675767  0.084723
    C   C57   0.500000  0.000000  0.896181  0.187400
    C   C58   0.000000  0.500000  0.896181  0.187367
    C   C59   0.500000  0.000000  0.103819  0.187315
    C   C60   0.000000  0.500000  0.103819  0.187743
    C   C61   0.000000  0.500000  0.396181  0.187598
    C   C62   0.500000  0.000000  0.396181  0.187460
    C   C63   0.000000  0.500000  0.603819  0.187506
    C   C64   0.500000  0.000000  0.603819  0.187564
    C   C65   0.460928  0.039113  0.767888  -0.140529
    C   C66   0.960887  0.460928  0.767888  -0.140569
    C   C67   0.539072  0.960888  0.767888  -0.140534
    C   C68   0.039113  0.539073  0.767888  -0.140570
    C   C69   0.460928  0.960888  0.232112  -0.140545
    C   C70   0.960887  0.539073  0.232112  -0.140550
    C   C71   0.539072  0.039113  0.232112  -0.140529
    C   C72   0.039113  0.460928  0.232112  -0.140507
    C   C73   0.960928  0.539113  0.267888  -0.140579
    C   C74   0.460887  0.960928  0.267888  -0.140554
    C   C75   0.039072  0.460888  0.267888  -0.140603
    C   C76   0.539113  0.039072  0.267888  -0.140549
    C   C77   0.960928  0.460888  0.732112  -0.140579
    C   C78   0.460887  0.039072  0.732112  -0.140537
    C   C79   0.039072  0.539113  0.732112  -0.140564
    C   C80   0.539113  0.960928  0.732112  -0.140532
    H   H33   0.430669  0.071000  0.781358  0.139927
    H   H34   0.929000  0.430669  0.781358  0.139932
    H   H35   0.569331  0.929001  0.781358  0.139936
    H   H36   0.070999  0.569331  0.781358  0.139930
    H   H37   0.430669  0.929001  0.218642  0.139944
    H   H38   0.929001  0.569331  0.218642  0.139922
    H   H39   0.569331  0.071000  0.218642  0.139938
    H   H40   0.071000  0.430669  0.218642  0.139903
    H   H41   0.930669  0.571000  0.281358  0.139868
    H   H42   0.429001  0.930669  0.281358  0.139903
    H   H43   0.069331  0.429001  0.281358  0.139881
    H   H44   0.571000  0.069331  0.281358  0.139894
    H   H45   0.930669  0.429001  0.718642  0.139882
    H   H46   0.429001  0.069331  0.718642  0.139893
    H   H47   0.069331  0.571000  0.718642  0.139876
    H   H48   0.571000  0.930669  0.718642  0.139881
    C   C81   0.500000  0.000000  0.713925  0.037062
    C   C82   0.000000  0.500000  0.713925  0.037053
    C   C83   0.500000  0.000000  0.286075  0.037083
    C   C84   0.000000  0.500000  0.286075  0.037053
    C   C85   0.000000  0.500000  0.213925  0.037186
    C   C86   0.500000  0.000000  0.213925  0.037211
    C   C87   0.000000  0.500000  0.786075  0.037203
    C   C88   0.500000  0.000000  0.786075  0.037192
    C   C89   0.717905  0.978791  0.471347  0.089959
    C   C90   0.021210  0.717905  0.471347  0.089965
    C   C91   0.282095  0.021210  0.471347  0.089988
    C   C92   0.978791  0.282095  0.471347  0.090018
    C   C93   0.717905  0.021210  0.528653  0.089926
    C   C94   0.021210  0.282095  0.528653  0.090012
    C   C95   0.282095  0.978791  0.528653  0.089983
    C   C96   0.978790  0.717905  0.528653  0.089962
    C   C97   0.217905  0.478791  0.971347  0.090002
    C   C98   0.521210  0.217905  0.971347  0.089946
    C   C99   0.782095  0.521210  0.971347  0.090053
    C   C100  0.478790  0.782096  0.971347  0.089954
    C   C101  0.217905  0.521210  0.028653  0.089997
    C   C102  0.521210  0.782096  0.028653  0.089958
    C   C103  0.782095  0.478791  0.028653  0.090057
    C   C104  0.478790  0.217905  0.028653  0.089957
    C   C105  0.781855  0.979770  0.471224  -0.125196
    C   C106  0.020230  0.781855  0.471224  -0.125218
    C   C107  0.218146  0.020230  0.471224  -0.125194
    C   C108  0.979770  0.218146  0.471224  -0.125193
    C   C109  0.781855  0.020230  0.528776  -0.125209
    C   C110  0.020230  0.218146  0.528776  -0.125189
    C   C111  0.218146  0.979770  0.528776  -0.125186
    C   C112  0.979770  0.781855  0.528776  -0.125184
    C   C113  0.281855  0.479771  0.971224  -0.125062
    C   C114  0.520230  0.281855  0.971224  -0.125094
    C   C115  0.718145  0.520230  0.971224  -0.125090
    C   C116  0.479770  0.718146  0.971224  -0.125062
    C   C117  0.281855  0.520230  0.028776  -0.125094
    C   C118  0.520230  0.718146  0.028776  -0.125065
    C   C119  0.718145  0.479771  0.028776  -0.125077
    C   C120  0.479770  0.281855  0.028776  -0.125069
    H   H49   0.806077  0.963104  0.448508  0.114826
    H   H50   0.036896  0.806077  0.448508  0.114805
    H   H51   0.193923  0.036896  0.448508  0.114825
    H   H52   0.963104  0.193923  0.448508  0.114788
    H   H53   0.806077  0.036896  0.551492  0.114840
    H   H54   0.036896  0.193923  0.551492  0.114786
    H   H55   0.193923  0.963104  0.551492  0.114826
    H   H56   0.963104  0.806077  0.551492  0.114784
    H   H57   0.306077  0.463104  0.948508  0.114672
    H   H58   0.536896  0.306078  0.948508  0.114748
    H   H59   0.693923  0.536897  0.948508  0.114691
    H   H60   0.463104  0.693923  0.948508  0.114737
    H   H61   0.306077  0.536897  0.051492  0.114698
    H   H62   0.536896  0.693923  0.051492  0.114739
    H   H63   0.693923  0.463104  0.051492  0.114684
    H   H64   0.463104  0.306078  0.051492  0.114733
    C   C121  0.814197  0.000000  0.500000  -0.086396
    C   C122  0.000000  0.814197  0.500000  -0.086429
    C   C123  0.185804  0.000000  0.500000  -0.086449
    C   C124  0.000000  0.185804  0.500000  -0.086482
    C   C125  0.314196  0.500000  0.000000  -0.086681
    C   C126  0.500000  0.314197  0.000000  -0.086599
    C   C127  0.685804  0.500000  0.000000  -0.086707
    C   C128  0.500000  0.685804  0.000000  -0.086650
    C   C129  0.685471  0.000000  0.500000  -0.215742
    C   C130  0.000000  0.685471  0.500000  -0.215830
    C   C131  0.314529  0.000000  0.500000  -0.215794
    C   C132  0.000000  0.314529  0.500000  -0.215888
    C   C133  0.185471  0.500000  0.000000  -0.216047
    C   C134  0.500000  0.185472  0.000000  -0.215894
    C   C135  0.814529  0.500000  0.000000  -0.216112
    C   C136  0.500000  0.814529  0.000000  -0.215904
    O   O33   0.982482  0.088604  0.471472  -0.575539
    O   O34   0.911396  0.982482  0.471472  -0.575548
    O   O35   0.017518  0.911396  0.471472  -0.575547
    O   O36   0.088604  0.017518  0.471472  -0.575536
    O   O37   0.982482  0.911396  0.528528  -0.575553
    O   O38   0.911396  0.017518  0.528528  -0.575555
    O   O39   0.017518  0.088604  0.528528  -0.575543
    O   O40   0.088604  0.982482  0.528528  -0.575546
    O   O41   0.482482  0.588604  0.971472  -0.575696
    O   O42   0.411396  0.482483  0.971472  -0.575693
    O   O43   0.517518  0.411396  0.971472  -0.575692
    O   O44   0.588604  0.517518  0.971472  -0.575713
    O   O45   0.482482  0.411396  0.028528  -0.575704
    O   O46   0.411396  0.517518  0.028528  -0.575713
    O   O47   0.517518  0.588604  0.028528  -0.575711
    O   O48   0.588604  0.482483  0.028528  -0.575722
    C   C137  0.000000  0.117792  0.500000  0.698231
    C   C138  0.882208  0.000000  0.500000  0.698191
    C   C139  0.000000  0.882208  0.500000  0.698190
    C   C140  0.117792  0.000000  0.500000  0.698228
    C   C141  0.500000  0.617792  0.000000  0.698500
    C   C142  0.382208  0.500000  0.000000  0.698488
    C   C143  0.500000  0.382208  0.000000  0.698455
    C   C144  0.617792  0.500000  0.000000  0.698529
    Cu  Cu9   0.000000  0.000000  0.466179  0.916121
    Cu  Cu10  0.000000  0.000000  0.533821  0.916137
    Cu  Cu11  0.500000  0.500000  0.966179  0.915863
    Cu  Cu12  0.500000  0.500000  0.033821  0.915892
    C   C145  0.686005  0.954708  0.440760  0.091943
    C   C146  0.689829  0.986427  0.409729  -0.136519
    C   C147  0.665084  0.961062  0.379947  0.076625
    Cl  Cl1   0.669761  0.001482  0.340614  -0.136419
    C   C148  0.637471  0.903443  0.381024  -0.065709
    C   C149  0.633520  0.871697  0.412001  -0.148486
    C   C150  0.658002  0.897172  0.441823  -0.145885
    H   H65   0.712733  0.030997  0.408682  0.097534
    H   H66   0.618687  0.883247  0.357589  0.095637
    H   H67   0.611851  0.826506  0.412826  0.126549
    H   H68   0.656582  0.871308  0.465846  0.114981
    C   C151  0.045292  0.686005  0.440760  0.091832
    C   C152  0.013573  0.689829  0.409729  -0.136330
    C   C153  0.038939  0.665084  0.379947  0.076268
    Cl  Cl2   0.998519  0.669761  0.340614  -0.136397
    C   C154  0.096558  0.637471  0.381024  -0.065495
    C   C155  0.128303  0.633520  0.412001  -0.148646
    C   C156  0.102828  0.658002  0.441823  -0.145777
    H   H69   0.969003  0.712733  0.408682  0.097517
    H   H70   0.116754  0.618687  0.357589  0.095613
    H   H71   0.173494  0.611851  0.412826  0.126547
    H   H72   0.128693  0.656582  0.465846  0.114961
    C   C157  0.313996  0.045292  0.440760  0.091958
    C   C158  0.310171  0.013573  0.409729  -0.136553
    C   C159  0.334916  0.038939  0.379947  0.076648
    Cl  Cl3   0.330239  0.998518  0.340614  -0.136427
    C   C160  0.362529  0.096558  0.381024  -0.065731
    C   C161  0.366480  0.128303  0.412001  -0.148454
    C   C162  0.341998  0.102828  0.441823  -0.145914
    H   H73   0.287267  0.969003  0.408682  0.097547
    H   H74   0.381313  0.116754  0.357589  0.095646
    H   H75   0.388149  0.173494  0.412826  0.126539
    H   H76   0.343418  0.128693  0.465846  0.114990
    C   C163  0.954708  0.313996  0.440760  0.091886
    C   C164  0.986427  0.310171  0.409729  -0.136472
    C   C165  0.961062  0.334916  0.379947  0.076566
    Cl  Cl4   0.001482  0.330239  0.340614  -0.136461
    C   C166  0.903443  0.362529  0.381024  -0.065721
    C   C167  0.871697  0.366480  0.412001  -0.148526
    C   C168  0.897172  0.341998  0.441823  -0.145878
    H   H77   0.030998  0.287267  0.408682  0.097520
    H   H78   0.883247  0.381313  0.357589  0.095646
    H   H79   0.826506  0.388149  0.412826  0.126539
    H   H80   0.871308  0.343418  0.465846  0.114975
    C   C169  0.686005  0.045292  0.559240  0.091862
    C   C170  0.689829  0.013573  0.590271  -0.136352
    C   C171  0.665084  0.038939  0.620053  0.076297
    Cl  Cl5   0.669761  0.998518  0.659386  -0.136355
    C   C172  0.637471  0.096557  0.618976  -0.065461
    C   C173  0.633520  0.128303  0.587999  -0.148644
    C   C174  0.658002  0.102828  0.558177  -0.145748
    H   H81   0.712733  0.969003  0.591318  0.097528
    H   H82   0.618687  0.116753  0.642411  0.095603
    H   H83   0.611851  0.173494  0.587174  0.126567
    H   H84   0.656582  0.128693  0.534154  0.114960
    C   C175  0.045292  0.313996  0.559240  0.091910
    C   C176  0.013573  0.310171  0.590271  -0.136505
    C   C177  0.038938  0.334916  0.620053  0.076613
    Cl  Cl6   0.998518  0.330239  0.659386  -0.136471
    C   C178  0.096557  0.362529  0.618976  -0.065753
    C   C179  0.128303  0.366480  0.587999  -0.148495
    C   C180  0.102828  0.341998  0.558177  -0.145905
    H   H85   0.969003  0.287267  0.591318  0.097529
    H   H86   0.116753  0.381313  0.642411  0.095652
    H   H87   0.173494  0.388149  0.587174  0.126531
    H   H88   0.128693  0.343418  0.534154  0.114981
    C   C181  0.313996  0.954708  0.559240  0.091924
    C   C182  0.310171  0.986427  0.590271  -0.136509
    C   C183  0.334916  0.961062  0.620053  0.076607
    Cl  Cl7   0.330239  0.001482  0.659386  -0.136415
    C   C184  0.362529  0.903443  0.618976  -0.065708
    C   C185  0.366480  0.871697  0.587999  -0.148499
    C   C186  0.341998  0.897172  0.558177  -0.145866
    H   H89   0.287267  0.030997  0.591318  0.097533
    H   H90   0.381313  0.883247  0.642411  0.095642
    H   H91   0.388149  0.826506  0.587174  0.126553
    H   H92   0.343418  0.871308  0.534154  0.114980
    C   C187  0.954708  0.686005  0.559240  0.091922
    C   C188  0.986427  0.689829  0.590271  -0.136486
    C   C189  0.961062  0.665084  0.620053  0.076598
    Cl  Cl8   0.001482  0.669761  0.659386  -0.136467
    C   C190  0.903443  0.637471  0.618976  -0.065739
    C   C191  0.871697  0.633520  0.587999  -0.148517
    C   C192  0.897172  0.658002  0.558177  -0.145897
    H   H93   0.030997  0.712733  0.591318  0.097523
    H   H94   0.883247  0.618687  0.642411  0.095647
    H   H95   0.826506  0.611851  0.587174  0.126542
    H   H96   0.871308  0.656582  0.534154  0.114978
    C   C193  0.186005  0.454708  0.940760  0.091909
    C   C194  0.189829  0.486428  0.909729  -0.136472
    C   C195  0.165084  0.461062  0.879947  0.076732
    Cl  Cl9   0.169761  0.501482  0.840614  -0.136704
    C   C196  0.137471  0.403443  0.881024  -0.065925
    C   C197  0.133520  0.371698  0.912001  -0.148477
    C   C198  0.158002  0.397173  0.941823  -0.145846
    H   H97   0.212733  0.530998  0.908682  0.097517
    H   H98   0.118687  0.383247  0.857589  0.095606
    H   H99   0.111851  0.326506  0.912826  0.126501
    H   H100  0.156582  0.371308  0.965846  0.114963
    C   C199  0.545292  0.186005  0.940760  0.091869
    C   C200  0.513573  0.189829  0.909729  -0.136363
    C   C201  0.538938  0.165084  0.879947  0.076455
    Cl  Cl10  0.498518  0.169761  0.840614  -0.136570
    C   C202  0.596557  0.137471  0.881024  -0.065659
    C   C203  0.628303  0.133520  0.912001  -0.148580
    C   C204  0.602828  0.158002  0.941823  -0.145704
    H   H101  0.469003  0.212733  0.908682  0.097541
    H   H102  0.616753  0.118687  0.857589  0.095567
    H   H103  0.673494  0.111851  0.912826  0.126524
    H   H104  0.628693  0.156583  0.965846  0.114962
    C   C205  0.813996  0.545293  0.940760  0.091883
    C   C206  0.810171  0.513574  0.909729  -0.136482
    C   C207  0.834916  0.538939  0.879947  0.076748
    Cl  Cl11  0.830239  0.498519  0.840614  -0.136710
    C   C208  0.862529  0.596558  0.881024  -0.065935
    C   C209  0.866480  0.628303  0.912001  -0.148457
    C   C210  0.841998  0.602828  0.941823  -0.145853
    H   H105  0.787267  0.469003  0.908682  0.097516
    H   H106  0.881313  0.616754  0.857589  0.095607
    H   H107  0.888149  0.673495  0.912826  0.126493
    H   H108  0.843418  0.628693  0.965846  0.114965
    C   C211  0.454708  0.813996  0.940760  0.092006
    C   C212  0.486427  0.810172  0.909729  -0.136570
    C   C213  0.461062  0.834917  0.879947  0.076795
    Cl  Cl12  0.501482  0.830239  0.840614  -0.136639
    C   C214  0.403443  0.862529  0.881024  -0.065933
    C   C215  0.371697  0.866481  0.912001  -0.148402
    C   C216  0.397172  0.841998  0.941823  -0.145881
    H   H109  0.530997  0.787267  0.908682  0.097558
    H   H110  0.383247  0.881313  0.857589  0.095609
    H   H111  0.326506  0.888150  0.912826  0.126505
    H   H112  0.371308  0.843418  0.965846  0.114993
    C   C217  0.186005  0.545293  0.059240  0.091779
    C   C218  0.189829  0.513573  0.090271  -0.136317
    C   C219  0.165084  0.538939  0.120053  0.076467
    Cl  Cl13  0.169761  0.498519  0.159386  -0.136662
    C   C220  0.137471  0.596558  0.118976  -0.065742
    C   C221  0.133520  0.628303  0.087999  -0.148699
    C   C222  0.158002  0.602828  0.058177  -0.145624
    H   H113  0.212733  0.469003  0.091318  0.097506
    H   H114  0.118687  0.616754  0.142411  0.095594
    H   H115  0.111851  0.673495  0.087174  0.126546
    H   H116  0.156582  0.628693  0.034154  0.114911
    C   C223  0.545292  0.813996  0.059240  0.092012
    C   C224  0.513573  0.810172  0.090271  -0.136603
    C   C225  0.538939  0.834917  0.120053  0.076838
    Cl  Cl14  0.498518  0.830239  0.159386  -0.136654
    C   C226  0.596557  0.862529  0.118976  -0.065951
    C   C227  0.628303  0.866481  0.087999  -0.148375
    C   C228  0.602828  0.841998  0.058177  -0.145899
    H   H117  0.469003  0.787267  0.091318  0.097572
    H   H118  0.616754  0.881313  0.142411  0.095612
    H   H119  0.673494  0.888150  0.087174  0.126498
    H   H120  0.628693  0.843418  0.034154  0.114996
    C   C229  0.813996  0.454708  0.059240  0.091826
    C   C230  0.810171  0.486427  0.090271  -0.136420
    C   C231  0.834916  0.461062  0.120053  0.076719
    Cl  Cl15  0.830239  0.501482  0.159386  -0.136704
    C   C232  0.862529  0.403443  0.118976  -0.065940
    C   C233  0.866480  0.371697  0.087999  -0.148487
    C   C234  0.841998  0.397172  0.058177  -0.145810
    H   H121  0.787267  0.530998  0.091318  0.097504
    H   H122  0.881313  0.383247  0.142411  0.095614
    H   H123  0.888149  0.326506  0.087174  0.126505
    H   H124  0.843418  0.371308  0.034154  0.114959
    C   C235  0.454708  0.186005  0.059240  0.091956
    C   C236  0.486427  0.189829  0.090271  -0.136537
    C   C237  0.461062  0.165084  0.120053  0.076801
    Cl  Cl16  0.501482  0.169761  0.159386  -0.136641
    C   C238  0.403443  0.137471  0.118976  -0.065914
    C   C239  0.371697  0.133520  0.087999  -0.148431
    C   C240  0.397172  0.158002  0.058177  -0.145822
    H   H125  0.530997  0.212733  0.091318  0.097553
    H   H126  0.383247  0.118687  0.142411  0.095607
    H   H127  0.326506  0.111851  0.087174  0.126509
    H   H128  0.371308  0.156583  0.034154  0.114977
