# Generated by REPEAT Assigner based on pymatgen
data_DB0-m2_o1_o3_f0_nbo.sym.78_sqe
_audit_creation_date              2022-05-24
_audit_creation_method            REPEAT_Assigner
_cell_length_a                    21.553538
_cell_length_b                    21.553538
_cell_length_c                    38.488166
_cell_angle_alpha                 90.000000
_cell_angle_beta                  90.000000
_cell_angle_gamma                 90.000000
_cell_volume                      17879.869092
_symmetry_space_group_name_H-M    P1
_symmetry_Int_Tables_number       1
loop_
    _symmetry_equiv_pos_site_id
    _symmetry_equiv_pos_as_xyz
    1  x,y,z
loop_
    _atom_site_type_symbol
    _atom_site_label
    _atom_site_fract_x
    _atom_site_fract_y
    _atom_site_fract_z
    _atom_type_partial_charge
    O   O1    0.588624  0.051428  0.490904  -0.665220
    O   O2    0.948572  0.588623  0.490904  -0.665207
    O   O3    0.411376  0.948572  0.490904  -0.665214
    O   O4    0.051428  0.411376  0.490904  -0.665234
    O   O5    0.588624  0.948572  0.509096  -0.665205
    O   O6    0.948572  0.411376  0.509096  -0.665226
    O   O7    0.411376  0.051428  0.509096  -0.665225
    O   O8    0.051428  0.588623  0.509096  -0.665209
    O   O9    0.088623  0.551428  0.990904  -0.665282
    O   O10   0.448572  0.088624  0.990904  -0.665258
    O   O11   0.911376  0.448572  0.990904  -0.665240
    O   O12   0.551428  0.911376  0.990904  -0.665246
    O   O13   0.088623  0.448572  0.009096  -0.665237
    O   O14   0.448572  0.911376  0.009096  -0.665236
    O   O15   0.911376  0.551428  0.009096  -0.665269
    O   O16   0.551428  0.088624  0.009096  -0.665240
    C   C1    0.617655  0.000000  0.500000  1.072985
    C   C2    0.000000  0.617655  0.500000  1.072954
    C   C3    0.382345  0.000000  0.500000  1.072990
    C   C4    0.000000  0.382345  0.500000  1.072991
    C   C5    0.117655  0.500000  0.000000  1.073058
    C   C6    0.500000  0.117655  0.000000  1.073077
    C   C7    0.882344  0.500000  0.000000  1.073064
    C   C8    0.500000  0.882345  0.000000  1.073070
    O   O17   0.516281  0.051386  0.549722  -0.519444
    O   O18   0.948614  0.516281  0.549722  -0.519413
    O   O19   0.483719  0.948614  0.549722  -0.519407
    O   O20   0.051386  0.483719  0.549722  -0.519438
    O   O21   0.516281  0.948614  0.450278  -0.519376
    O   O22   0.948614  0.483719  0.450278  -0.519379
    O   O23   0.483719  0.051386  0.450278  -0.519433
    O   O24   0.051386  0.516281  0.450278  -0.519429
    O   O25   0.016281  0.551386  0.049722  -0.519449
    O   O26   0.448614  0.016281  0.049722  -0.519393
    O   O27   0.983719  0.448614  0.049722  -0.519402
    O   O28   0.551385  0.983719  0.049722  -0.519430
    O   O29   0.016281  0.448614  0.950278  -0.519424
    O   O30   0.448614  0.983719  0.950278  -0.519431
    O   O31   0.983718  0.551386  0.950278  -0.519465
    O   O32   0.551385  0.016281  0.950278  -0.519453
    C   C9    0.500000  0.000000  0.566017  0.536904
    C   C10   0.000000  0.500000  0.566017  0.536907
    C   C11   0.500000  0.000000  0.433983  0.536930
    C   C12   0.000000  0.500000  0.433983  0.536935
    C   C13   0.000000  0.500000  0.066017  0.536876
    C   C14   0.500000  0.000000  0.066017  0.536937
    C   C15   0.000000  0.500000  0.933983  0.536845
    C   C16   0.500000  0.000000  0.933983  0.536858
    Cu  Cu1   0.500000  0.060782  0.500000  0.907716
    Cu  Cu2   0.939218  0.500000  0.500000  0.907672
    Cu  Cu3   0.500000  0.939218  0.500000  0.907686
    Cu  Cu4   0.060782  0.500000  0.500000  0.907747
    Cu  Cu5   0.000000  0.560782  0.000000  0.907677
    Cu  Cu6   0.439218  0.000000  0.000000  0.907722
    Cu  Cu7   0.000000  0.439218  0.000000  0.907856
    Cu  Cu8   0.560782  0.000000  0.000000  0.907747
    C   C17   0.555292  0.003156  0.877869  -0.150287
    C   C18   0.996844  0.555292  0.877869  -0.150310
    C   C19   0.444707  0.996844  0.877869  -0.150302
    C   C20   0.003155  0.444707  0.877869  -0.150304
    C   C21   0.555292  0.996844  0.122131  -0.150207
    C   C22   0.996844  0.444708  0.122131  -0.150326
    C   C23   0.444707  0.003156  0.122131  -0.150013
    C   C24   0.003155  0.555293  0.122131  -0.150314
    C   C25   0.055293  0.503155  0.377869  -0.150199
    C   C26   0.496844  0.055292  0.377869  -0.150195
    C   C27   0.944708  0.496844  0.377869  -0.150007
    C   C28   0.503156  0.944707  0.377869  -0.149997
    C   C29   0.055292  0.496844  0.622131  -0.150325
    C   C30   0.496844  0.944707  0.622131  -0.150320
    C   C31   0.944707  0.503155  0.622131  -0.150328
    C   C32   0.503156  0.055292  0.622131  -0.150314
    H   H1    0.599118  0.005477  0.891436  0.119114
    H   H2    0.994522  0.599118  0.891436  0.119117
    H   H3    0.400882  0.994523  0.891436  0.119119
    H   H4    0.005477  0.400882  0.891436  0.119118
    H   H5    0.599118  0.994523  0.108564  0.119101
    H   H6    0.994522  0.400882  0.108564  0.119121
    H   H7    0.400881  0.005477  0.108564  0.118990
    H   H8    0.005477  0.599118  0.108564  0.119122
    H   H9    0.099118  0.505477  0.391436  0.119100
    H   H10   0.494523  0.099118  0.391436  0.119099
    H   H11   0.900882  0.494522  0.391436  0.118985
    H   H12   0.505477  0.900882  0.391436  0.118986
    H   H13   0.099118  0.494522  0.608564  0.119126
    H   H14   0.494523  0.900882  0.608564  0.119125
    H   H15   0.900882  0.505477  0.608564  0.119125
    H   H16   0.505477  0.099118  0.608564  0.119122
    C   C33   0.555288  0.002332  0.842063  -0.138265
    C   C34   0.997668  0.555288  0.842063  -0.138253
    C   C35   0.444712  0.997668  0.842063  -0.138245
    C   C36   0.002332  0.444712  0.842063  -0.138251
    C   C37   0.555288  0.997668  0.157937  -0.138295
    C   C38   0.997668  0.444712  0.157937  -0.138215
    C   C39   0.444712  0.002332  0.157937  -0.138383
    C   C40   0.002332  0.555288  0.157937  -0.138233
    C   C41   0.055288  0.502332  0.342063  -0.138305
    C   C42   0.497668  0.055288  0.342063  -0.138311
    C   C43   0.944712  0.497668  0.342063  -0.138386
    C   C44   0.502332  0.944712  0.342063  -0.138397
    C   C45   0.055288  0.497668  0.657937  -0.138224
    C   C46   0.497668  0.944712  0.657937  -0.138213
    C   C47   0.944712  0.502332  0.657937  -0.138207
    C   C48   0.502332  0.055288  0.657937  -0.138228
    H   H17   0.598911  0.004970  0.828297  0.116422
    H   H18   0.995029  0.598912  0.828297  0.116420
    H   H19   0.401088  0.995030  0.828297  0.116413
    H   H20   0.004970  0.401088  0.828297  0.116416
    H   H21   0.598912  0.995030  0.171703  0.116422
    H   H22   0.995030  0.401088  0.171703  0.116407
    H   H23   0.401088  0.004970  0.171703  0.116449
    H   H24   0.004970  0.598912  0.171703  0.116412
    H   H25   0.098912  0.504970  0.328297  0.116423
    H   H26   0.495030  0.098912  0.328297  0.116425
    H   H27   0.901088  0.495030  0.328297  0.116453
    H   H28   0.504970  0.901088  0.328297  0.116454
    H   H29   0.098912  0.495030  0.671703  0.116409
    H   H30   0.495030  0.901088  0.671703  0.116402
    H   H31   0.901088  0.504970  0.671703  0.116402
    H   H32   0.504970  0.098911  0.671703  0.116410
    C   C49   0.500000  0.000000  0.824005  0.082382
    C   C50   0.000000  0.500000  0.824005  0.082391
    C   C51   0.500000  0.000000  0.175995  0.082420
    C   C52   0.000000  0.500000  0.175995  0.082368
    C   C53   0.000000  0.500000  0.324005  0.082425
    C   C54   0.500000  0.000000  0.324005  0.082435
    C   C55   0.000000  0.500000  0.675995  0.082365
    C   C56   0.500000  0.000000  0.675995  0.082365
    C   C57   0.500000  0.000000  0.895951  0.103653
    C   C58   0.000000  0.500000  0.895952  0.103671
    C   C59   0.500000  0.000000  0.104049  0.103429
    C   C60   0.000000  0.500000  0.104049  0.103646
    C   C61   0.000000  0.500000  0.395952  0.103421
    C   C62   0.500000  0.000000  0.395952  0.103415
    C   C63   0.000000  0.500000  0.604049  0.103630
    C   C64   0.500000  0.000000  0.604049  0.103622
    C   C65   0.460555  0.038831  0.767902  -0.147029
    C   C66   0.961169  0.460555  0.767902  -0.147023
    C   C67   0.539444  0.961169  0.767902  -0.147024
    C   C68   0.038831  0.539444  0.767902  -0.147029
    C   C69   0.460555  0.961169  0.232098  -0.147059
    C   C70   0.961169  0.539445  0.232098  -0.147031
    C   C71   0.539444  0.038831  0.232098  -0.147061
    C   C72   0.038831  0.460556  0.232098  -0.147038
    C   C73   0.960556  0.538831  0.267902  -0.147070
    C   C74   0.461169  0.960555  0.267902  -0.147050
    C   C75   0.039444  0.461169  0.267902  -0.147055
    C   C76   0.538831  0.039444  0.267902  -0.147048
    C   C77   0.960555  0.461169  0.732098  -0.147054
    C   C78   0.461169  0.039444  0.732098  -0.147058
    C   C79   0.039444  0.538831  0.732098  -0.147058
    C   C80   0.538831  0.960555  0.732098  -0.147060
    H   H33   0.429887  0.069979  0.781660  0.115560
    H   H34   0.930021  0.429887  0.781659  0.115558
    H   H35   0.570113  0.930021  0.781659  0.115556
    H   H36   0.069979  0.570113  0.781660  0.115556
    H   H37   0.429887  0.930021  0.218340  0.115568
    H   H38   0.930021  0.570113  0.218340  0.115563
    H   H39   0.570113  0.069979  0.218340  0.115567
    H   H40   0.069979  0.429887  0.218340  0.115559
    H   H41   0.929887  0.569979  0.281660  0.115566
    H   H42   0.430021  0.929887  0.281660  0.115565
    H   H43   0.070113  0.430021  0.281660  0.115562
    H   H44   0.569979  0.070113  0.281660  0.115564
    H   H45   0.929887  0.430021  0.718340  0.115565
    H   H46   0.430021  0.070113  0.718341  0.115566
    H   H47   0.070113  0.569979  0.718341  0.115568
    H   H48   0.569979  0.929887  0.718340  0.115569
    C   C81   0.500000  0.000000  0.714037  0.089035
    C   C82   0.000000  0.500000  0.714037  0.089031
    C   C83   0.500000  0.000000  0.285963  0.089042
    C   C84   0.000000  0.500000  0.285963  0.089059
    C   C85   0.000000  0.500000  0.214037  0.089021
    C   C86   0.500000  0.000000  0.214037  0.089049
    C   C87   0.000000  0.500000  0.785963  0.089014
    C   C88   0.500000  0.000000  0.785963  0.089019
    C   C89   0.717602  0.964272  0.475910  0.073059
    C   C90   0.035727  0.717602  0.475910  0.073008
    C   C91   0.282398  0.035727  0.475910  0.073002
    C   C92   0.964273  0.282397  0.475910  0.073004
    C   C93   0.717602  0.035727  0.524090  0.073015
    C   C94   0.035727  0.282397  0.524090  0.072957
    C   C95   0.282398  0.964272  0.524090  0.072994
    C   C96   0.964273  0.717602  0.524090  0.073011
    C   C97   0.217602  0.464273  0.975910  0.073015
    C   C98   0.535727  0.217602  0.975910  0.073064
    C   C99   0.782397  0.535727  0.975910  0.072976
    C   C100  0.464272  0.782398  0.975910  0.073012
    C   C101  0.217602  0.535727  0.024090  0.072989
    C   C102  0.535727  0.782398  0.024090  0.073002
    C   C103  0.782397  0.464273  0.024090  0.072979
    C   C104  0.464272  0.217602  0.024090  0.073057
    C   C105  0.782035  0.961030  0.477512  0.033181
    C   C106  0.038970  0.782035  0.477512  0.033234
    C   C107  0.217965  0.038970  0.477512  0.033219
    C   C108  0.961030  0.217965  0.477512  0.033210
    C   C109  0.782035  0.038970  0.522488  0.033218
    C   C110  0.038970  0.217965  0.522488  0.033247
    C   C111  0.217965  0.961030  0.522488  0.033212
    C   C112  0.961030  0.782035  0.522488  0.033222
    C   C113  0.282035  0.461030  0.977512  0.033211
    C   C114  0.538970  0.282035  0.977512  0.033203
    C   C115  0.717965  0.538970  0.977512  0.033277
    C   C116  0.461030  0.717965  0.977512  0.033229
    C   C117  0.282035  0.538970  0.022488  0.033238
    C   C118  0.538970  0.717965  0.022488  0.033257
    C   C119  0.717965  0.461030  0.022488  0.033266
    C   C120  0.461030  0.282035  0.022488  0.033204
    C   C121  0.814088  0.000000  0.500000  -0.286335
    C   C122  0.000000  0.814087  0.500000  -0.286354
    C   C123  0.185913  0.000000  0.500000  -0.286311
    C   C124  0.000000  0.185912  0.500000  -0.286330
    C   C125  0.314087  0.500000  0.000000  -0.286351
    C   C126  0.500000  0.314088  0.000000  -0.286371
    C   C127  0.685912  0.500000  0.000000  -0.286399
    C   C128  0.500000  0.685913  0.000000  -0.286375
    C   C129  0.685644  0.000000  0.500000  -0.358672
    C   C130  0.000000  0.685644  0.500000  -0.358646
    C   C131  0.314356  0.000000  0.500000  -0.358643
    C   C132  0.000000  0.314355  0.500000  -0.358629
    C   C133  0.185644  0.500000  0.000000  -0.358692
    C   C134  0.500000  0.185644  0.000000  -0.358741
    C   C135  0.814355  0.500000  0.000000  -0.358688
    C   C136  0.500000  0.814356  0.000000  -0.358708
    O   O33   0.016535  0.088800  0.471281  -0.576544
    O   O34   0.911200  0.016535  0.471281  -0.576537
    O   O35   0.983465  0.911200  0.471281  -0.576529
    O   O36   0.088800  0.983464  0.471281  -0.576533
    O   O37   0.016535  0.911200  0.528719  -0.576507
    O   O38   0.911200  0.983464  0.528719  -0.576502
    O   O39   0.983465  0.088800  0.528719  -0.576508
    O   O40   0.088800  0.016535  0.528719  -0.576501
    O   O41   0.516535  0.588800  0.971281  -0.576554
    O   O42   0.411200  0.516535  0.971281  -0.576524
    O   O43   0.483464  0.411200  0.971281  -0.576562
    O   O44   0.588800  0.483465  0.971281  -0.576528
    O   O45   0.516535  0.411200  0.028719  -0.576592
    O   O46   0.411200  0.483465  0.028719  -0.576566
    O   O47   0.483464  0.588800  0.028719  -0.576570
    O   O48   0.588800  0.516535  0.028719  -0.576574
    C   C137  0.000000  0.117880  0.500000  0.908618
    C   C138  0.882120  0.000000  0.500000  0.908641
    C   C139  0.000000  0.882120  0.500000  0.908640
    C   C140  0.117880  0.000000  0.500000  0.908593
    C   C141  0.500000  0.617880  0.000000  0.908708
    C   C142  0.382120  0.500000  0.000000  0.908679
    C   C143  0.500000  0.382120  0.000000  0.908755
    C   C144  0.617880  0.500000  0.000000  0.908717
    Cu  Cu9   0.000000  0.000000  0.466043  0.822184
    Cu  Cu10  0.000000  0.000000  0.533957  0.822261
    Cu  Cu11  0.500000  0.500000  0.966043  0.822406
    Cu  Cu12  0.500000  0.500000  0.033957  0.822144
    C   C145  0.682085  0.930858  0.447968  0.311718
    O   O49   0.661823  0.873523  0.460334  -0.600558
    H   H49   0.710495  0.924003  0.424329  0.004746
    H   H50   0.641819  0.958677  0.439221  -0.081495
    H   H51   0.623120  0.865269  0.447284  0.368745
    C   C146  0.069142  0.682085  0.447968  0.311728
    O   O50   0.126477  0.661823  0.460334  -0.600553
    H   H52   0.075997  0.710495  0.424329  0.004742
    H   H53   0.041323  0.641819  0.439221  -0.081483
    H   H54   0.134730  0.623120  0.447284  0.368733
    C   C147  0.317915  0.069142  0.447968  0.311759
    O   O51   0.338177  0.126477  0.460334  -0.600551
    H   H55   0.289505  0.075997  0.424329  0.004728
    H   H56   0.358181  0.041322  0.439221  -0.081490
    H   H57   0.376880  0.134730  0.447284  0.368725
    C   C148  0.930858  0.317915  0.447968  0.311798
    O   O52   0.873523  0.338176  0.460334  -0.600557
    H   H58   0.924003  0.289505  0.424329  0.004718
    H   H59   0.958677  0.358180  0.439221  -0.081512
    H   H60   0.865270  0.376880  0.447284  0.368733
    C   C149  0.682085  0.069142  0.552032  0.311704
    O   O53   0.661823  0.126477  0.539666  -0.600544
    H   H61   0.710495  0.075997  0.575671  0.004746
    H   H62   0.641819  0.041322  0.560779  -0.081475
    H   H63   0.623120  0.134730  0.552716  0.368733
    C   C150  0.069142  0.317915  0.552032  0.311791
    O   O54   0.126477  0.338176  0.539666  -0.600549
    H   H64   0.075997  0.289505  0.575671  0.004717
    H   H65   0.041323  0.358180  0.560779  -0.081492
    H   H66   0.134730  0.376880  0.552716  0.368723
    C   C151  0.317915  0.930858  0.552032  0.311744
    O   O55   0.338177  0.873523  0.539666  -0.600538
    H   H67   0.289505  0.924003  0.575671  0.004731
    H   H68   0.358181  0.958677  0.560779  -0.081484
    H   H69   0.376880  0.865270  0.552716  0.368720
    C   C152  0.930858  0.682085  0.552032  0.311707
    O   O56   0.873523  0.661823  0.539666  -0.600537
    H   H70   0.924003  0.710495  0.575671  0.004746
    H   H71   0.958677  0.641819  0.560779  -0.081477
    H   H72   0.865270  0.623120  0.552716  0.368726
    C   C153  0.182085  0.430858  0.947968  0.311793
    O   O57   0.161823  0.373523  0.960334  -0.600560
    H   H73   0.210494  0.424003  0.924329  0.004726
    H   H74   0.141819  0.458678  0.939221  -0.081506
    H   H75   0.123120  0.365270  0.947284  0.368730
    C   C154  0.569142  0.182085  0.947968  0.311738
    O   O58   0.626477  0.161823  0.960334  -0.600578
    H   H76   0.575997  0.210495  0.924329  0.004735
    H   H77   0.541322  0.141819  0.939221  -0.081488
    H   H78   0.634730  0.123120  0.947284  0.368745
    C   C155  0.817915  0.569142  0.947968  0.311825
    O   O59   0.838176  0.626477  0.960334  -0.600568
    H   H79   0.789505  0.575997  0.924329  0.004709
    H   H80   0.858180  0.541323  0.939221  -0.081501
    H   H81   0.876879  0.634730  0.947284  0.368731
    C   C156  0.430858  0.817915  0.947968  0.311785
    O   O60   0.373522  0.838177  0.960334  -0.600548
    H   H82   0.424003  0.789505  0.924329  0.004709
    H   H83   0.458677  0.858181  0.939221  -0.081489
    H   H84   0.365269  0.876880  0.947284  0.368720
    C   C157  0.182085  0.569142  0.052032  0.311773
    O   O61   0.161823  0.626477  0.039666  -0.600557
    H   H85   0.210494  0.575997  0.075671  0.004728
    H   H86   0.141819  0.541323  0.060779  -0.081498
    H   H87   0.123120  0.634730  0.052716  0.368734
    C   C158  0.569142  0.817915  0.052032  0.311739
    O   O62   0.626477  0.838177  0.039666  -0.600549
    H   H88   0.575997  0.789505  0.075671  0.004726
    H   H89   0.541322  0.858181  0.060779  -0.081475
    H   H90   0.634730  0.876880  0.052716  0.368732
    C   C159  0.817915  0.430858  0.052032  0.311780
    O   O63   0.838176  0.373523  0.039666  -0.600542
    H   H91   0.789505  0.424003  0.075671  0.004715
    H   H92   0.858180  0.458677  0.060779  -0.081483
    H   H93   0.876879  0.365270  0.052716  0.368723
    C   C160  0.430858  0.182085  0.052032  0.311718
    O   O64   0.373522  0.161823  0.039666  -0.600552
    H   H94   0.424003  0.210495  0.075671  0.004740
    H   H95   0.458677  0.141819  0.060779  -0.081492
    H   H96   0.365269  0.123120  0.052716  0.368743
    C   C161  0.817060  0.914219  0.456191  0.290266
    O   O65   0.834655  0.940470  0.424574  -0.615990
    H   H97   0.788869  0.872123  0.451448  0.008335
    H   H98   0.858632  0.897277  0.470130  -0.058985
    H   H99   0.876124  0.922658  0.419805  0.378949
    C   C162  0.085781  0.817060  0.456191  0.290255
    O   O66   0.059530  0.834655  0.424574  -0.615991
    H   H100  0.127877  0.788869  0.451448  0.008339
    H   H101  0.102723  0.858631  0.470130  -0.058982
    H   H102  0.077342  0.876124  0.419805  0.378950
    C   C163  0.182940  0.085781  0.456191  0.290247
    O   O67   0.165345  0.059530  0.424574  -0.615990
    H   H103  0.211131  0.127877  0.451448  0.008347
    H   H104  0.141368  0.102723  0.470130  -0.058988
    H   H105  0.123876  0.077341  0.419805  0.378951
    C   C164  0.914219  0.182940  0.456191  0.290252
    O   O68   0.940470  0.165345  0.424574  -0.615987
    H   H106  0.872123  0.211131  0.451448  0.008343
    H   H107  0.897277  0.141368  0.470130  -0.058991
    H   H108  0.922658  0.123876  0.419805  0.378951
    C   C165  0.817060  0.085781  0.543809  0.290252
    O   O69   0.834655  0.059530  0.575426  -0.615981
    H   H109  0.788869  0.127877  0.548552  0.008343
    H   H110  0.858632  0.102723  0.529870  -0.058985
    H   H111  0.876124  0.077341  0.580195  0.378941
    C   C166  0.085781  0.182940  0.543809  0.290239
    O   O70   0.059530  0.165345  0.575426  -0.615974
    H   H112  0.127877  0.211131  0.548552  0.008349
    H   H113  0.102723  0.141368  0.529870  -0.058991
    H   H114  0.077342  0.123876  0.580195  0.378940
    C   C167  0.182940  0.914219  0.543809  0.290253
    O   O71   0.165345  0.940470  0.575426  -0.615973
    H   H115  0.211131  0.872123  0.548552  0.008343
    H   H116  0.141368  0.897277  0.529870  -0.058991
    H   H117  0.123876  0.922658  0.580195  0.378941
    C   C168  0.914219  0.817060  0.543809  0.290261
    O   O72   0.940470  0.834655  0.575426  -0.615978
    H   H118  0.872123  0.788869  0.548552  0.008337
    H   H119  0.897277  0.858631  0.529870  -0.058984
    H   H120  0.922658  0.876124  0.580195  0.378941
    C   C169  0.317060  0.414219  0.956191  0.290256
    O   O73   0.334655  0.440470  0.924574  -0.615997
    H   H121  0.288869  0.372123  0.951448  0.008334
    H   H122  0.358631  0.397277  0.970130  -0.058979
    H   H123  0.376123  0.422658  0.919805  0.378960
    C   C170  0.585781  0.317060  0.956191  0.290260
    O   O74   0.559530  0.334655  0.924574  -0.615995
    H   H124  0.627877  0.288869  0.951448  0.008343
    H   H125  0.602723  0.358632  0.970130  -0.058992
    H   H126  0.577341  0.376124  0.919805  0.378954
    C   C171  0.682940  0.585781  0.956191  0.290191
    O   O75   0.665344  0.559530  0.924574  -0.615990
    H   H127  0.711131  0.627877  0.951448  0.008356
    H   H128  0.641368  0.602723  0.970130  -0.058969
    H   H129  0.623876  0.577342  0.919805  0.378958
    C   C172  0.414218  0.682940  0.956191  0.290167
    O   O76   0.440470  0.665345  0.924574  -0.615914
    H   H130  0.372123  0.711131  0.951448  0.008358
    H   H131  0.397277  0.641368  0.970130  -0.058959
    H   H132  0.422658  0.623876  0.919805  0.378917
    C   C173  0.317060  0.585781  0.043809  0.290257
    O   O77   0.334655  0.559530  0.075426  -0.615995
    H   H133  0.288869  0.627877  0.048552  0.008340
    H   H134  0.358631  0.602723  0.029870  -0.058988
    H   H135  0.376123  0.577342  0.080195  0.378955
    C   C174  0.585781  0.682940  0.043809  0.290233
    O   O78   0.559530  0.665345  0.075426  -0.615987
    H   H136  0.627877  0.711131  0.048552  0.008353
    H   H137  0.602723  0.641368  0.029870  -0.058994
    H   H138  0.577342  0.623876  0.080195  0.378954
    C   C175  0.682940  0.414219  0.043809  0.290231
    O   O79   0.665344  0.440470  0.075426  -0.616002
    H   H139  0.711131  0.372123  0.048552  0.008350
    H   H140  0.641368  0.397277  0.029870  -0.058992
    H   H141  0.623876  0.422658  0.080195  0.378966
    C   C176  0.414218  0.317060  0.043809  0.290253
    O   O80   0.440470  0.334655  0.075426  -0.615989
    H   H142  0.372123  0.288869  0.048552  0.008342
    H   H143  0.397277  0.358632  0.029870  -0.058991
    H   H144  0.422658  0.376124  0.080195  0.378949
