# Generated by REPEAT Assigner based on pymatgen
data_DB0-m2_o1_o3_f0_nbo.sym.86
_audit_creation_date              2022-05-24
_audit_creation_method            REPEAT_Assigner
_cell_length_a                    21.496594
_cell_length_b                    21.496594
_cell_length_c                    38.330444
_cell_angle_alpha                 90.000000
_cell_angle_beta                  90.000000
_cell_angle_gamma                 90.000000
_cell_volume                      17712.633998
_symmetry_space_group_name_H-M    P1
_symmetry_Int_Tables_number       1
loop_
    _symmetry_equiv_pos_site_id
    _symmetry_equiv_pos_as_xyz
    1  x,y,z
loop_
    _atom_site_type_symbol
    _atom_site_label
    _atom_site_fract_x
    _atom_site_fract_y
    _atom_site_fract_z
    _atom_type_partial_charge
    O   O1    0.588402  0.050999  0.510388  -0.619108
    O   O2    0.949004  0.588405  0.510392  -0.619134
    O   O3    0.411597  0.949001  0.510388  -0.619116
    O   O4    0.050995  0.411595  0.510392  -0.619142
    O   O5    0.588414  0.949021  0.489680  -0.618996
    O   O6    0.949017  0.411587  0.489684  -0.619023
    O   O7    0.411585  0.050979  0.489680  -0.618998
    O   O8    0.050982  0.588412  0.489685  -0.619041
    O   O9    0.088407  0.550997  0.010390  -0.618906
    O   O10   0.449001  0.088404  0.010386  -0.618854
    O   O11   0.911594  0.449004  0.010390  -0.618905
    O   O12   0.551000  0.911596  0.010386  -0.618869
    O   O13   0.088414  0.449016  0.989687  -0.618858
    O   O14   0.449020  0.911585  0.989683  -0.618746
    O   O15   0.911587  0.550984  0.989687  -0.618877
    O   O16   0.550981  0.088415  0.989683  -0.618731
    C   C1    0.617505  0.000013  0.500035  0.669650
    C   C2    0.999991  0.617506  0.500039  0.669664
    C   C3    0.382494  0.999987  0.500035  0.669651
    C   C4    0.000008  0.382494  0.500038  0.669648
    C   C5    0.117507  0.500008  0.000039  0.669102
    C   C6    0.499988  0.117507  0.000035  0.668848
    C   C7    0.882494  0.499992  0.000039  0.669108
    C   C8    0.500013  0.882493  0.000035  0.668872
    O   O17   0.481573  0.051040  0.549724  -0.660211
    O   O18   0.948958  0.481577  0.549728  -0.660157
    O   O19   0.518426  0.948960  0.549724  -0.660194
    O   O20   0.051040  0.518423  0.549728  -0.660158
    O   O21   0.481587  0.948955  0.450344  -0.660081
    O   O22   0.948956  0.518415  0.450349  -0.660088
    O   O23   0.518412  0.051045  0.450345  -0.660106
    O   O24   0.051044  0.481585  0.450349  -0.660087
    O   O25   0.981583  0.551043  0.049729  -0.660155
    O   O26   0.448959  0.981580  0.049725  -0.660136
    O   O27   0.018419  0.448958  0.049729  -0.660145
    O   O28   0.551042  0.018420  0.049725  -0.660147
    O   O29   0.981590  0.448954  0.950348  -0.660242
    O   O30   0.448954  0.018408  0.950344  -0.660039
    O   O31   0.018411  0.551046  0.950348  -0.660248
    O   O32   0.551047  0.981592  0.950344  -0.660089
    C   C9    0.499999  0.000000  0.565936  0.904914
    C   C10   0.999999  0.500000  0.565940  0.904779
    C   C11   0.499999  0.000000  0.434133  0.903964
    C   C12   0.000000  0.500000  0.434137  0.903931
    C   C13   0.000001  0.500000  0.065941  0.904168
    C   C14   0.500000  0.000000  0.065937  0.904664
    C   C15   0.000000  0.500000  0.934136  0.904371
    C   C16   0.500001  0.000000  0.934133  0.904234
    Cu  Cu1   0.499992  0.060606  0.500034  0.985844
    Cu  Cu2   0.939393  0.499995  0.500038  0.985910
    Cu  Cu3   0.500007  0.939394  0.500034  0.985817
    Cu  Cu4   0.060606  0.500004  0.500039  0.985928
    Cu  Cu5   0.999996  0.560607  0.000039  0.985845
    Cu  Cu6   0.439393  0.999993  0.000035  0.985764
    Cu  Cu7   0.000005  0.439393  0.000039  0.985927
    Cu  Cu8   0.560608  0.000007  0.000035  0.985767
    C   C17   0.489721  0.945478  0.878435  -0.197049
    C   C18   0.054531  0.489772  0.878439  -0.196279
    C   C19   0.510280  0.054522  0.878435  -0.197050
    C   C20   0.945469  0.510227  0.878439  -0.196274
    C   C21   0.489939  0.054562  0.121634  -0.193579
    C   C22   0.054554  0.510113  0.121638  -0.194802
    C   C23   0.510062  0.945438  0.121634  -0.193682
    C   C24   0.945448  0.489888  0.121638  -0.194799
    C   C25   0.989883  0.445448  0.378440  -0.194875
    C   C26   0.554542  0.989833  0.378436  -0.195843
    C   C27   0.010117  0.554552  0.378440  -0.194851
    C   C28   0.445457  0.010167  0.378436  -0.195849
    C   C29   0.990006  0.554575  0.621637  -0.193664
    C   C30   0.554586  0.009930  0.621632  -0.193663
    C   C31   0.009992  0.445425  0.621637  -0.193648
    C   C32   0.445413  0.990069  0.621633  -0.193748
    H   H1    0.480547  0.903872  0.893239  0.123108
    H   H2    0.096146  0.480636  0.893243  0.122879
    H   H3    0.519454  0.096128  0.893239  0.123099
    H   H4    0.903854  0.519363  0.893243  0.122876
    H   H5    0.480925  0.096203  0.106830  0.122356
    H   H6    0.096186  0.519164  0.106833  0.122646
    H   H7    0.519076  0.903797  0.106829  0.122404
    H   H8    0.903815  0.480837  0.106834  0.122650
    H   H9    0.980829  0.403816  0.393244  0.122760
    H   H10   0.596166  0.980742  0.393240  0.122926
    H   H11   0.019171  0.596184  0.393244  0.122746
    H   H12   0.403833  0.019258  0.393240  0.122931
    H   H13   0.981043  0.596226  0.606832  0.122262
    H   H14   0.596247  0.018847  0.606827  0.122086
    H   H15   0.018955  0.403774  0.606832  0.122264
    H   H16   0.403753  0.981152  0.606828  0.122124
    C   C33   0.489270  0.945084  0.842399  0.208218
    C   C34   0.054925  0.489318  0.842402  0.206329
    C   C35   0.510731  0.054916  0.842398  0.208197
    C   C36   0.945074  0.510682  0.842402  0.206337
    C   C37   0.489473  0.054956  0.157671  0.202874
    C   C38   0.054948  0.510575  0.157675  0.203005
    C   C39   0.510528  0.945044  0.157671  0.203016
    C   C40   0.945054  0.489426  0.157675  0.202944
    C   C41   0.989422  0.445054  0.342403  0.203155
    C   C42   0.554937  0.989375  0.342399  0.205003
    C   C43   0.010580  0.554946  0.342403  0.203189
    C   C44   0.445063  0.010625  0.342399  0.205010
    C   C45   0.989535  0.554968  0.657674  0.203830
    C   C46   0.554979  0.010405  0.657669  0.203919
    C   C47   0.010463  0.445032  0.657674  0.203816
    C   C48   0.445020  0.989594  0.657670  0.203842
    C   C49   0.500000  0.000000  0.824363  -0.182543
    C   C50   0.000000  0.500000  0.824366  -0.180306
    C   C51   0.500000  0.000000  0.175707  -0.178623
    C   C52   0.000001  0.500001  0.175711  -0.177643
    C   C53   0.000001  0.500000  0.324367  -0.178194
    C   C54   0.500000  0.000000  0.324363  -0.179594
    C   C55   0.999999  0.500000  0.675710  -0.179448
    C   C56   0.500000  0.000000  0.675706  -0.179425
    C   C57   0.500000  0.000000  0.896214  -0.165373
    C   C58   0.000000  0.500000  0.896218  -0.165480
    C   C59   0.500000  0.000000  0.103855  -0.167816
    C   C60   0.000001  0.500000  0.103859  -0.166164
    C   C61   0.000000  0.500000  0.396218  -0.166249
    C   C62   0.500000  0.000000  0.396214  -0.165596
    C   C63   0.999999  0.500000  0.603858  -0.168018
    C   C64   0.500000  0.000000  0.603854  -0.167812
    C   C65   0.460648  0.039119  0.767988  -0.215363
    C   C66   0.960915  0.460613  0.767992  -0.215345
    C   C67   0.539353  0.960881  0.767988  -0.215350
    C   C68   0.039083  0.539387  0.767992  -0.215466
    C   C69   0.460510  0.961020  0.232081  -0.217805
    C   C70   0.960990  0.539460  0.232085  -0.215437
    C   C71   0.539490  0.038980  0.232081  -0.217847
    C   C72   0.039012  0.460541  0.232085  -0.215432
    C   C73   0.960544  0.539014  0.267993  -0.216361
    C   C74   0.460956  0.960574  0.267989  -0.214035
    C   C75   0.039458  0.460987  0.267993  -0.216152
    C   C76   0.539044  0.039427  0.267989  -0.214017
    C   C77   0.960469  0.461060  0.732084  -0.216019
    C   C78   0.461096  0.039564  0.732080  -0.215736
    C   C79   0.039529  0.538940  0.732084  -0.215981
    C   C80   0.538904  0.960435  0.732080  -0.215755
    H   H17   0.429151  0.069502  0.781866  0.117978
    H   H18   0.930560  0.429090  0.781870  0.118048
    H   H19   0.570849  0.930498  0.781866  0.117974
    H   H20   0.069439  0.570910  0.781870  0.118134
    H   H21   0.428907  0.930748  0.218203  0.118344
    H   H22   0.930693  0.571040  0.218207  0.118118
    H   H23   0.571093  0.069252  0.218204  0.118339
    H   H24   0.069309  0.428962  0.218207  0.118091
    H   H25   0.928966  0.569313  0.281870  0.118218
    H   H26   0.430632  0.929020  0.281866  0.117963
    H   H27   0.071035  0.430688  0.281870  0.118136
    H   H28   0.569368  0.070980  0.281867  0.117958
    H   H29   0.928835  0.430820  0.718207  0.118014
    H   H30   0.430884  0.071226  0.718203  0.117978
    H   H31   0.071163  0.569180  0.718207  0.117992
    H   H32   0.569115  0.928773  0.718203  0.117989
    C   C81   0.500000  0.000000  0.713951  0.236721
    C   C82   0.999999  0.500000  0.713955  0.236663
    C   C83   0.500000  0.000000  0.286118  0.233391
    C   C84   0.000001  0.500001  0.286122  0.235598
    C   C85   0.000001  0.500001  0.213956  0.234271
    C   C86   0.500000  0.000000  0.213952  0.237935
    C   C87   0.999999  0.500000  0.786121  0.234902
    C   C88   0.500000  0.000000  0.786117  0.235216
    C   C89   0.717713  0.962451  0.477097  -0.166973
    C   C90   0.037553  0.717713  0.477100  -0.166708
    C   C91   0.282286  0.037548  0.477097  -0.166992
    C   C92   0.962446  0.282286  0.477100  -0.166713
    C   C93   0.717712  0.037581  0.522976  -0.167731
    C   C94   0.037575  0.282287  0.522978  -0.167789
    C   C95   0.282287  0.962419  0.522976  -0.167736
    C   C96   0.962423  0.717713  0.522978  -0.167765
    C   C97   0.217715  0.462440  0.977103  -0.167196
    C   C98   0.537556  0.217715  0.977100  -0.167239
    C   C99   0.782286  0.537560  0.977103  -0.167217
    C   C100  0.462445  0.782285  0.977100  -0.167231
    C   C101  0.217714  0.537581  0.022975  -0.168249
    C   C102  0.537586  0.782287  0.022973  -0.168090
    C   C103  0.782287  0.462419  0.022976  -0.168269
    C   C104  0.462415  0.217713  0.022973  -0.168088
    H   H33   0.693106  0.933223  0.458765  0.145425
    H   H34   0.066783  0.693106  0.458768  0.145354
    H   H35   0.306892  0.066777  0.458765  0.145429
    H   H36   0.933217  0.306894  0.458768  0.145350
    H   H37   0.693103  0.066809  0.541307  0.145873
    H   H38   0.066804  0.306895  0.541309  0.145930
    H   H39   0.306896  0.933190  0.541307  0.145882
    H   H40   0.933195  0.693104  0.541309  0.145924
    H   H41   0.193107  0.433206  0.958773  0.145329
    H   H42   0.566789  0.193108  0.958771  0.145317
    H   H43   0.806894  0.566794  0.958773  0.145333
    H   H44   0.433212  0.806892  0.958771  0.145317
    H   H45   0.193106  0.566815  0.041304  0.145901
    H   H46   0.566820  0.806896  0.041302  0.145849
    H   H47   0.806895  0.433186  0.041305  0.145913
    H   H48   0.433181  0.193104  0.041302  0.145848
    C   C105  0.781822  0.963238  0.476690  -0.089893
    C   C106  0.036765  0.781822  0.476691  -0.089926
    C   C107  0.218177  0.036762  0.476690  -0.089843
    C   C108  0.963234  0.218178  0.476691  -0.089914
    C   C109  0.781821  0.036789  0.523387  -0.089093
    C   C110  0.036785  0.218178  0.523388  -0.089247
    C   C111  0.218178  0.963211  0.523387  -0.089040
    C   C112  0.963213  0.781821  0.523388  -0.089279
    C   C113  0.281823  0.463228  0.976694  -0.089541
    C   C114  0.536770  0.281823  0.976693  -0.089679
    C   C115  0.718178  0.536772  0.976694  -0.089512
    C   C116  0.463231  0.718177  0.976693  -0.089689
    C   C117  0.281823  0.536791  0.023385  -0.088801
    C   C118  0.536794  0.718178  0.023384  -0.088946
    C   C119  0.718178  0.463209  0.023385  -0.088784
    C   C120  0.463207  0.281822  0.023384  -0.088947
    H   H49   0.806264  0.933869  0.458370  0.112730
    H   H50   0.066134  0.806264  0.458371  0.112712
    H   H51   0.193735  0.066131  0.458370  0.112718
    H   H52   0.933866  0.193736  0.458371  0.112709
    H   H53   0.806263  0.066154  0.541709  0.112487
    H   H54   0.066152  0.193736  0.541709  0.112626
    H   H55   0.193736  0.933845  0.541709  0.112450
    H   H56   0.933847  0.806264  0.541709  0.112634
    H   H57   0.306265  0.433855  0.958376  0.112730
    H   H58   0.566143  0.306265  0.958375  0.112727
    H   H59   0.693736  0.566145  0.958376  0.112724
    H   H60   0.433858  0.693735  0.958375  0.112729
    H   H61   0.306265  0.566162  0.041704  0.112482
    H   H62   0.566165  0.693736  0.041703  0.112510
    H   H63   0.693736  0.433838  0.041704  0.112477
    H   H64   0.433836  0.306264  0.041703  0.112516
    C   C121  0.814140  0.000011  0.500039  -0.023518
    C   C122  0.999990  0.814140  0.500040  -0.023681
    C   C123  0.185859  0.999988  0.500039  -0.023607
    C   C124  0.000009  0.185859  0.500040  -0.023738
    C   C125  0.314142  0.500009  0.000040  -0.024106
    C   C126  0.499990  0.314141  0.000039  -0.023922
    C   C127  0.685860  0.499991  0.000040  -0.024121
    C   C128  0.500011  0.685859  0.000039  -0.023924
    C   C129  0.685470  0.000017  0.500035  0.057739
    C   C130  0.999988  0.685471  0.500039  0.057736
    C   C131  0.314529  0.999982  0.500035  0.057745
    C   C132  0.000011  0.314529  0.500039  0.057761
    C   C133  0.185472  0.500011  0.000039  0.058534
    C   C134  0.499984  0.185472  0.000036  0.058607
    C   C135  0.814529  0.499989  0.000039  0.058544
    C   C136  0.500017  0.814528  0.000036  0.058609
    O   O33   0.981406  0.088624  0.471518  -0.608010
    O   O34   0.911376  0.981406  0.471518  -0.607966
    O   O35   0.018593  0.911376  0.471518  -0.607992
    O   O36   0.088623  0.018594  0.471518  -0.607978
    O   O37   0.981395  0.911378  0.528562  -0.607986
    O   O38   0.911378  0.018604  0.528562  -0.607943
    O   O39   0.018604  0.088622  0.528562  -0.608037
    O   O40   0.088621  0.981395  0.528562  -0.607892
    O   O41   0.481406  0.588624  0.971518  -0.608152
    O   O42   0.411377  0.481405  0.971518  -0.608151
    O   O43   0.518595  0.411376  0.971518  -0.608147
    O   O44   0.588624  0.518595  0.971518  -0.608157
    O   O45   0.481396  0.411378  0.028562  -0.608039
    O   O46   0.411379  0.518605  0.028562  -0.608072
    O   O47   0.518605  0.588622  0.028562  -0.608041
    O   O48   0.588622  0.481395  0.028562  -0.608070
    C   C137  0.000006  0.117803  0.500040  0.716649
    C   C138  0.882197  0.000007  0.500040  0.716279
    C   C139  0.999993  0.882197  0.500040  0.716549
    C   C140  0.117802  0.999992  0.500040  0.716309
    C   C141  0.500008  0.617802  0.000040  0.716672
    C   C142  0.382198  0.500007  0.000040  0.716715
    C   C143  0.499994  0.382198  0.000040  0.716659
    C   C144  0.617803  0.499993  0.000040  0.716711
    Cu  Cu9   0.000000  0.000000  0.466147  0.945214
    Cu  Cu10  0.000000  0.000000  0.533934  0.945314
    Cu  Cu11  0.500001  0.500000  0.966147  0.945206
    Cu  Cu12  0.500001  0.500000  0.033934  0.945171
    N   N1    0.474625  0.890152  0.823748  -0.110852
    C   C145  0.505116  0.833107  0.833750  -0.061403
    C   C146  0.461191  0.789329  0.852836  0.239534
    O   O49   0.405860  0.781686  0.834182  -0.420831
    C   C147  0.376034  0.839403  0.834505  0.256712
    C   C148  0.411375  0.884846  0.811919  -0.004957
    H   H65   0.546100  0.843246  0.850362  0.029193
    H   H66   0.521831  0.809452  0.809813  0.049480
    H   H67   0.451814  0.805243  0.879795  -0.006417
    H   H68   0.484400  0.743432  0.855004  0.015187
    H   H69   0.371381  0.857720  0.861420  -0.025381
    H   H70   0.328567  0.833796  0.823638  0.008038
    H   H71   0.388226  0.930872  0.813250  0.014199
    H   H72   0.411082  0.868281  0.784517  0.031454
    N   N2    0.109869  0.474717  0.823751  -0.111569
    C   C149  0.166892  0.505246  0.833755  -0.059729
    C   C150  0.210700  0.461351  0.852841  0.240054
    O   O50   0.218384  0.406028  0.834185  -0.420583
    C   C151  0.160688  0.376161  0.834504  0.254729
    C   C152  0.115221  0.411472  0.811919  -0.002036
    H   H73   0.156723  0.546223  0.850368  0.028933
    H   H74   0.190536  0.521981  0.809819  0.048857
    H   H75   0.194790  0.451959  0.879799  -0.006717
    H   H76   0.256580  0.484592  0.855011  0.014767
    H   H77   0.142372  0.371491  0.861419  -0.024853
    H   H78   0.166330  0.328699  0.823635  0.008350
    H   H79   0.069212  0.388289  0.813248  0.013421
    H   H80   0.131789  0.411196  0.784518  0.030747
    N   N3    0.525375  0.109848  0.823748  -0.110841
    C   C153  0.494885  0.166893  0.833750  -0.061393
    C   C154  0.538810  0.210671  0.852836  0.239515
    O   O51   0.594140  0.218314  0.834182  -0.420829
    C   C155  0.623966  0.160597  0.834504  0.256713
    C   C156  0.588626  0.115153  0.811919  -0.004978
    H   H81   0.453901  0.156754  0.850362  0.029187
    H   H82   0.478169  0.190547  0.809813  0.049482
    H   H83   0.548187  0.194757  0.879795  -0.006409
    H   H84   0.515601  0.256568  0.855004  0.015196
    H   H85   0.628620  0.142280  0.861419  -0.025376
    H   H86   0.671434  0.166203  0.823637  0.008039
    H   H87   0.611775  0.069127  0.813250  0.014218
    H   H88   0.588918  0.131718  0.784517  0.031456
    N   N4    0.890130  0.525283  0.823752  -0.111559
    C   C157  0.833108  0.494753  0.833756  -0.059565
    C   C158  0.789300  0.538648  0.852842  0.239636
    O   O52   0.781615  0.593972  0.834186  -0.420527
    C   C159  0.839311  0.623839  0.834505  0.255034
    C   C160  0.884777  0.588528  0.811920  -0.002086
    H   H89   0.843276  0.453777  0.850368  0.028923
    H   H90   0.809463  0.478019  0.809820  0.048832
    H   H91   0.805210  0.548040  0.879800  -0.006609
    H   H92   0.743420  0.515407  0.855012  0.014862
    H   H93   0.857627  0.628509  0.861420  -0.024970
    H   H94   0.833669  0.671301  0.823637  0.008298
    H   H95   0.930787  0.611711  0.813249  0.013402
    H   H96   0.868209  0.588804  0.784519  0.030705
    N   N5    0.475010  0.109937  0.176321  -0.108208
    C   C161  0.505668  0.166888  0.166313  -0.062682
    C   C162  0.461869  0.210793  0.147227  0.242319
    O   O53   0.406569  0.218610  0.165887  -0.421486
    C   C163  0.376569  0.160983  0.165575  0.257820
    C   C164  0.411782  0.115441  0.188161  -0.004600
    H   H97   0.546619  0.156624  0.149699  0.029617
    H   H98   0.522460  0.190498  0.190246  0.049466
    H   H99   0.452432  0.194898  0.120271  -0.007470
    H   H100  0.485215  0.256618  0.145051  0.014228
    H   H101  0.371848  0.142671  0.138663  -0.025826
    H   H102  0.329123  0.166737  0.176449  0.007820
    H   H103  0.388490  0.069487  0.186839  0.013782
    H   H104  0.411556  0.132018  0.215561  0.030607
    N   N6    0.109917  0.525080  0.176325  -0.108140
    C   C165  0.166891  0.494462  0.166318  -0.062978
    C   C166  0.210765  0.538291  0.147232  0.241776
    O   O54   0.218542  0.593598  0.165891  -0.421467
    C   C167  0.160893  0.623557  0.165578  0.258335
    C   C168  0.115375  0.588313  0.188163  -0.003749
    H   H105  0.156656  0.453504  0.149704  0.029718
    H   H106  0.190511  0.477688  0.190252  0.049395
    H   H107  0.194866  0.547715  0.120275  -0.007470
    H   H108  0.256608  0.514977  0.145058  0.014624
    H   H109  0.142580  0.628263  0.138665  -0.025909
    H   H110  0.166613  0.671008  0.176450  0.007410
    H   H111  0.069403  0.611572  0.186839  0.013539
    H   H112  0.131949  0.588554  0.215563  0.030516
    N   N7    0.524991  0.890063  0.176321  -0.108203
    C   C169  0.494333  0.833112  0.166313  -0.063010
    C   C170  0.538132  0.789207  0.147227  0.242322
    O   O55   0.593432  0.781390  0.165887  -0.421471
    C   C171  0.623432  0.839017  0.165576  0.257837
    C   C172  0.588219  0.884559  0.188161  -0.004804
    H   H113  0.453382  0.843376  0.149699  0.029723
    H   H114  0.477541  0.809502  0.190246  0.049542
    H   H115  0.547569  0.805102  0.120271  -0.007465
    H   H116  0.514785  0.743382  0.145051  0.014268
    H   H117  0.628153  0.857329  0.138663  -0.025817
    H   H118  0.670877  0.833263  0.176449  0.007833
    H   H119  0.611511  0.930513  0.186840  0.013853
    H   H120  0.588445  0.867982  0.215561  0.030684
    N   N8    0.890084  0.474921  0.176326  -0.108069
    C   C173  0.833111  0.505539  0.166318  -0.063044
    C   C174  0.789236  0.461710  0.147233  0.241823
    O   O56   0.781460  0.406403  0.165892  -0.421472
    C   C175  0.839109  0.376444  0.165578  0.258303
    C   C176  0.884627  0.411688  0.188163  -0.003717
    H   H121  0.843346  0.546498  0.149704  0.029738
    H   H122  0.809491  0.522313  0.190252  0.049396
    H   H123  0.805136  0.452286  0.120276  -0.007495
    H   H124  0.743394  0.485024  0.145059  0.014620
    H   H125  0.857422  0.371738  0.138665  -0.025900
    H   H126  0.833389  0.328993  0.176450  0.007416
    H   H127  0.930598  0.388429  0.186840  0.013525
    H   H128  0.868053  0.411447  0.215563  0.030509
    N   N9    0.974912  0.390086  0.323752  -0.107525
    C   C177  0.005529  0.333112  0.333758  -0.064152
    C   C178  0.961700  0.289238  0.352845  0.242081
    O   O57   0.906391  0.281465  0.334187  -0.421270
    C   C179  0.876434  0.339115  0.334503  0.257196
    C   C180  0.911678  0.384632  0.311917  -0.003752
    H   H129  0.046489  0.343345  0.350371  0.030056
    H   H130  0.022300  0.309491  0.309823  0.049615
    H   H131  0.952280  0.305136  0.379802  -0.007316
    H   H132  0.985012  0.243394  0.355017  0.014527
    H   H133  0.871733  0.357427  0.361416  -0.025542
    H   H134  0.828982  0.333398  0.323633  0.007770
    H   H135  0.888421  0.430604  0.313242  0.013562
    H   H136  0.911432  0.368058  0.284516  0.030562
    N   N10   0.609894  0.974823  0.323748  -0.108913
    C   C181  0.666890  0.005402  0.333753  -0.063055
    C   C182  0.710734  0.961544  0.352840  0.241136
    O   O58   0.718467  0.906227  0.334184  -0.421250
    C   C183  0.660797  0.876311  0.334502  0.257465
    C   C184  0.615302  0.911584  0.311915  -0.003056
    H   H137  0.656686  0.046370  0.350365  0.029693
    H   H138  0.690521  0.022155  0.309818  0.049465
    H   H139  0.694831  0.952138  0.379798  -0.007024
    H   H140  0.756594  0.984824  0.355010  0.014793
    H   H141  0.642482  0.871625  0.361415  -0.025647
    H   H142  0.666480  0.828854  0.323633  0.007605
    H   H143  0.569313  0.888360  0.313242  0.013365
    H   H144  0.631873  0.911323  0.284515  0.030586
    N   N11   0.025089  0.609915  0.323752  -0.107568
    C   C185  0.994472  0.666889  0.333758  -0.064156
    C   C186  0.038301  0.710763  0.352845  0.242144
    O   O59   0.093610  0.718536  0.334188  -0.421293
    C   C187  0.123567  0.660886  0.334504  0.257223
    C   C188  0.088324  0.615369  0.311918  -0.003752
    H   H145  0.953511  0.656656  0.350371  0.030046
    H   H146  0.977701  0.690510  0.309824  0.049624
    H   H147  0.047720  0.694864  0.379803  -0.007336
    H   H148  0.014988  0.756606  0.355018  0.014512
    H   H149  0.128268  0.642573  0.361417  -0.025549
    H   H150  0.171019  0.666603  0.323634  0.007769
    H   H151  0.111580  0.569397  0.313242  0.013542
    H   H152  0.088570  0.631943  0.284517  0.030571
    N   N12   0.390106  0.025177  0.323748  -0.108891
    C   C189  0.333110  0.994598  0.333752  -0.063091
    C   C190  0.289265  0.038456  0.352839  0.241204
    O   O60   0.281532  0.093773  0.334183  -0.421271
    C   C191  0.339203  0.123689  0.334501  0.257477
    C   C192  0.384698  0.088416  0.311915  -0.003062
    H   H153  0.343314  0.953630  0.350365  0.029694
    H   H154  0.309479  0.977845  0.309817  0.049465
    H   H155  0.305168  0.047862  0.379797  -0.007045
    H   H156  0.243405  0.015176  0.355010  0.014781
    H   H157  0.357517  0.128375  0.361415  -0.025655
    H   H158  0.333520  0.171146  0.323632  0.007608
    H   H159  0.430686  0.111640  0.313242  0.013365
    H   H160  0.368126  0.088677  0.284514  0.030586
    N   N13   0.975128  0.609965  0.676324  -0.109032
    C   C193  0.005843  0.666885  0.666315  -0.061625
    C   C194  0.962087  0.710832  0.647227  0.242403
    O   O61   0.906794  0.718705  0.665887  -0.421313
    C   C195  0.876738  0.661107  0.665576  0.257216
    C   C196  0.911906  0.615533  0.688163  -0.004826
    H   H161  0.046784  0.656580  0.649702  0.029314
    H   H162  0.022656  0.690480  0.690248  0.049266
    H   H163  0.952635  0.694945  0.620271  -0.007643
    H   H164  0.985479  0.756634  0.645052  0.014125
    H   H165  0.872000  0.642797  0.638664  -0.025637
    H   H166  0.829297  0.666908  0.676449  0.008064
    H   H167  0.888568  0.569601  0.686843  0.013851
    H   H168  0.911696  0.632113  0.715563  0.030616
    N   N14   0.609990  0.024760  0.676319  -0.109438
    C   C197  0.666882  0.993994  0.666309  -0.061917
    C   C198  0.710867  0.037711  0.647221  0.243261
    O   O62   0.718791  0.092996  0.665881  -0.421850
    C   C199  0.661221  0.123104  0.665572  0.259148
    C   C200  0.615617  0.087977  0.688159  -0.004726
    H   H169  0.656540  0.953061  0.649696  0.029359
    H   H170  0.690463  0.977160  0.690242  0.049287
    H   H171  0.694987  0.047178  0.620265  -0.007716
    H   H172  0.756648  0.014277  0.645044  0.013871
    H   H173  0.642913  0.127859  0.638660  -0.026233
    H   H174  0.667066  0.170539  0.676444  0.007586
    H   H175  0.569707  0.111357  0.686841  0.013525
    H   H176  0.632200  0.088170  0.715558  0.030354
    N   N15   0.024870  0.390035  0.676324  -0.109018
    C   C201  0.994155  0.333115  0.666315  -0.061702
    C   C202  0.037911  0.289168  0.647228  0.242502
    O   O63   0.093203  0.281295  0.665887  -0.421342
    C   C203  0.123260  0.338893  0.665576  0.257257
    C   C204  0.088092  0.384467  0.688163  -0.004796
    H   H177  0.953213  0.343420  0.649702  0.029332
    H   H178  0.977342  0.309520  0.690248  0.049278
    H   H179  0.047362  0.305054  0.620272  -0.007676
    H   H180  0.014519  0.243366  0.645052  0.014109
    H   H181  0.127998  0.357203  0.638664  -0.025651
    H   H182  0.170700  0.333092  0.676449  0.008059
    H   H183  0.111430  0.430399  0.686843  0.013842
    H   H184  0.088302  0.367887  0.715563  0.030598
    N   N16   0.390010  0.975239  0.676319  -0.109255
    C   C205  0.333117  0.006005  0.666309  -0.062371
    C   C206  0.289132  0.962289  0.647221  0.243450
    O   O64   0.281208  0.907003  0.665881  -0.421886
    C   C207  0.338779  0.876895  0.665572  0.259179
    C   C208  0.384383  0.912023  0.688160  -0.004727
    H   H185  0.343460  0.046938  0.649697  0.029527
    H   H186  0.309536  0.022839  0.690242  0.049380
    H   H187  0.305012  0.952822  0.620266  -0.007766
    H   H188  0.243351  0.985722  0.645044  0.013848
    H   H189  0.357086  0.872140  0.638661  -0.026230
    H   H190  0.332934  0.829460  0.676445  0.007574
    H   H191  0.430293  0.888642  0.686841  0.013519
    H   H192  0.367800  0.911830  0.715558  0.030359
