# Generated by REPEAT Assigner based on pymatgen
data_DB0-m2_o1_o3_f0_nbo.sym.105
_audit_creation_date              2022-05-24
_audit_creation_method            REPEAT_Assigner
_cell_length_a                    21.521527
_cell_length_b                    21.521527
_cell_length_c                    38.573433
_cell_angle_alpha                 90.000000
_cell_angle_beta                  90.000000
_cell_angle_gamma                 90.000000
_cell_volume                      17866.293137
_symmetry_space_group_name_H-M    P1
_symmetry_Int_Tables_number       1
loop_
    _symmetry_equiv_pos_site_id
    _symmetry_equiv_pos_as_xyz
    1  x,y,z
loop_
    _atom_site_type_symbol
    _atom_site_label
    _atom_site_fract_x
    _atom_site_fract_y
    _atom_site_fract_z
    _atom_type_partial_charge
    O   O1    0.588499  0.051140  0.509791  -0.554909
    O   O2    0.948860  0.588499  0.509791  -0.555059
    O   O3    0.411501  0.948860  0.509791  -0.554883
    O   O4    0.051140  0.411501  0.509791  -0.555054
    O   O5    0.588499  0.948860  0.490209  -0.554911
    O   O6    0.948860  0.411502  0.490209  -0.555034
    O   O7    0.411501  0.051140  0.490209  -0.554897
    O   O8    0.051140  0.588499  0.490209  -0.555064
    O   O9    0.088499  0.551140  0.009791  -0.554846
    O   O10   0.448860  0.088499  0.009791  -0.555029
    O   O11   0.911501  0.448860  0.009791  -0.554898
    O   O12   0.551140  0.911501  0.009791  -0.555062
    O   O13   0.088499  0.448860  0.990209  -0.554901
    O   O14   0.448860  0.911501  0.990209  -0.555004
    O   O15   0.911501  0.551140  0.990209  -0.554842
    O   O16   0.551140  0.088499  0.990209  -0.555043
    C   C1    0.617625  0.000000  0.500000  0.635074
    C   C2    0.000000  0.617625  0.500000  0.634989
    C   C3    0.382376  0.000000  0.500000  0.635055
    C   C4    0.000000  0.382376  0.500000  0.634971
    C   C5    0.117624  0.500000  0.000000  0.635032
    C   C6    0.500000  0.117624  0.000000  0.634939
    C   C7    0.882376  0.500000  0.000000  0.634949
    C   C8    0.500000  0.882375  0.000000  0.634876
    O   O17   0.482552  0.051160  0.549492  -0.585413
    O   O18   0.948839  0.482551  0.549491  -0.585578
    O   O19   0.517449  0.948840  0.549492  -0.585408
    O   O20   0.051160  0.517448  0.549492  -0.585566
    O   O21   0.482551  0.948839  0.450509  -0.585456
    O   O22   0.948839  0.517449  0.450509  -0.585584
    O   O23   0.517448  0.051160  0.450508  -0.585414
    O   O24   0.051160  0.482552  0.450509  -0.585590
    O   O25   0.982551  0.551161  0.049491  -0.585407
    O   O26   0.448839  0.982551  0.049492  -0.585566
    O   O27   0.017448  0.448840  0.049492  -0.585438
    O   O28   0.551160  0.017448  0.049492  -0.585584
    O   O29   0.982552  0.448839  0.950509  -0.585458
    O   O30   0.448840  0.017448  0.950509  -0.585577
    O   O31   0.017449  0.551160  0.950509  -0.585393
    O   O32   0.551161  0.982551  0.950509  -0.585586
    C   C9    0.500001  0.000000  0.565774  0.657744
    C   C10   0.000000  0.500000  0.565774  0.657759
    C   C11   0.500000  0.000000  0.434226  0.657855
    C   C12   0.000000  0.500001  0.434226  0.657795
    C   C13   0.000000  0.500000  0.065774  0.657794
    C   C14   0.500000  0.000000  0.065774  0.657781
    C   C15   0.000000  0.500000  0.934226  0.657856
    C   C16   0.500000  0.000000  0.934226  0.657860
    Cu  Cu1   0.500000  0.060653  0.500000  0.961584
    Cu  Cu2   0.939347  0.500000  0.500000  0.960983
    Cu  Cu3   0.500000  0.939347  0.500000  0.961683
    Cu  Cu4   0.060653  0.500000  0.500000  0.960885
    Cu  Cu5   0.000000  0.560653  0.000000  0.961640
    Cu  Cu6   0.439347  0.000000  0.000000  0.960994
    Cu  Cu7   0.000000  0.439347  0.000000  0.961590
    Cu  Cu8   0.560653  0.000000  0.000000  0.960867
    C   C17   0.554709  0.991314  0.878159  -0.094245
    C   C18   0.008686  0.554709  0.878159  -0.094210
    C   C19   0.445291  0.008685  0.878159  -0.094183
    C   C20   0.991315  0.445291  0.878159  -0.094166
    C   C21   0.554709  0.008685  0.121842  -0.094258
    C   C22   0.008685  0.445291  0.121842  -0.094202
    C   C23   0.445291  0.991314  0.121841  -0.094252
    C   C24   0.991314  0.554709  0.121841  -0.094228
    C   C25   0.054709  0.491315  0.378159  -0.094270
    C   C26   0.508685  0.054709  0.378159  -0.094220
    C   C27   0.945291  0.508686  0.378159  -0.094248
    C   C28   0.491314  0.945291  0.378159  -0.094169
    C   C29   0.054709  0.508685  0.621842  -0.094233
    C   C30   0.508686  0.945291  0.621841  -0.094259
    C   C31   0.945291  0.491314  0.621842  -0.094239
    C   C32   0.491315  0.054709  0.621842  -0.094189
    H   H1    0.598258  0.985080  0.891648  0.124600
    H   H2    0.014920  0.598258  0.891648  0.124596
    H   H3    0.401742  0.014919  0.891648  0.124590
    H   H4    0.985081  0.401742  0.891648  0.124588
    H   H5    0.598258  0.014919  0.108352  0.124600
    H   H6    0.014919  0.401742  0.108352  0.124590
    H   H7    0.401742  0.985080  0.108352  0.124607
    H   H8    0.985080  0.598258  0.108352  0.124603
    H   H9    0.098258  0.485081  0.391648  0.124610
    H   H10   0.514919  0.098258  0.391648  0.124596
    H   H11   0.901742  0.514920  0.391648  0.124606
    H   H12   0.485080  0.901742  0.391648  0.124591
    H   H13   0.098258  0.514919  0.608352  0.124591
    H   H14   0.514920  0.901742  0.608352  0.124591
    H   H15   0.901742  0.485080  0.608352  0.124594
    H   H16   0.485081  0.098258  0.608352  0.124572
    C   C33   0.554758  0.991641  0.842427  -0.152925
    C   C34   0.008359  0.554757  0.842427  -0.152889
    C   C35   0.445243  0.008358  0.842427  -0.152994
    C   C36   0.991642  0.445242  0.842427  -0.152968
    C   C37   0.554757  0.008358  0.157573  -0.152953
    C   C38   0.008358  0.445243  0.157573  -0.152950
    C   C39   0.445242  0.991641  0.157573  -0.152987
    C   C40   0.991641  0.554758  0.157573  -0.152945
    C   C41   0.054757  0.491642  0.342427  -0.152957
    C   C42   0.508358  0.054757  0.342427  -0.152892
    C   C43   0.945242  0.508359  0.342427  -0.152987
    C   C44   0.491641  0.945242  0.342427  -0.152977
    C   C45   0.054757  0.508358  0.657573  -0.152971
    C   C46   0.508359  0.945242  0.657573  -0.152779
    C   C47   0.945242  0.491641  0.657573  -0.152987
    C   C48   0.491642  0.054758  0.657573  -0.152900
    H   H17   0.598541  0.986599  0.829033  0.113872
    H   H18   0.013401  0.598541  0.829033  0.113855
    H   H19   0.401460  0.013400  0.829033  0.113909
    H   H20   0.986600  0.401459  0.829033  0.113904
    H   H21   0.598541  0.013400  0.170967  0.113872
    H   H22   0.013400  0.401460  0.170967  0.113871
    H   H23   0.401459  0.986599  0.170967  0.113892
    H   H24   0.986599  0.598541  0.170967  0.113876
    H   H25   0.098541  0.486600  0.329033  0.113876
    H   H26   0.513400  0.098540  0.329033  0.113859
    H   H27   0.901459  0.513401  0.329033  0.113890
    H   H28   0.486599  0.901459  0.329033  0.113905
    H   H29   0.098541  0.513400  0.670967  0.113880
    H   H30   0.513401  0.901459  0.670967  0.113838
    H   H31   0.901459  0.486599  0.670967  0.113893
    H   H32   0.486600  0.098541  0.670967  0.113880
    C   C49   0.500000  0.000000  0.824230  0.100241
    C   C50   0.000000  0.500000  0.824230  0.100209
    C   C51   0.500000  0.000000  0.175770  0.100253
    C   C52   0.000000  0.500000  0.175770  0.100239
    C   C53   0.000000  0.500001  0.324230  0.100265
    C   C54   0.500000  0.000000  0.324230  0.100210
    C   C55   0.000000  0.500000  0.675770  0.100255
    C   C56   0.500001  0.000000  0.675770  0.099875
    C   C57   0.500000  0.000000  0.896237  -0.030264
    C   C58   0.000000  0.500000  0.896237  -0.030248
    C   C59   0.500000  0.000000  0.103763  -0.030161
    C   C60   0.000000  0.500000  0.103763  -0.030163
    C   C61   0.000000  0.500001  0.396237  -0.030152
    C   C62   0.500000  0.000000  0.396237  -0.030229
    C   C63   0.000000  0.500000  0.603763  -0.030161
    C   C64   0.500001  0.000000  0.603763  -0.030088
    C   C65   0.460936  0.039207  0.767864  -0.138400
    C   C66   0.960793  0.460935  0.767864  -0.138431
    C   C67   0.539065  0.960793  0.767864  -0.138386
    C   C68   0.039207  0.539065  0.767864  -0.138404
    C   C69   0.460935  0.960793  0.232136  -0.138409
    C   C70   0.960793  0.539065  0.232136  -0.138429
    C   C71   0.539065  0.039207  0.232136  -0.138395
    C   C72   0.039207  0.460936  0.232136  -0.138411
    C   C73   0.960935  0.539208  0.267864  -0.138398
    C   C74   0.460793  0.960935  0.267864  -0.138425
    C   C75   0.039065  0.460794  0.267864  -0.138411
    C   C76   0.539207  0.039065  0.267864  -0.138409
    C   C77   0.960935  0.460793  0.732136  -0.138399
    C   C78   0.460793  0.039065  0.732136  -0.138516
    C   C79   0.039065  0.539207  0.732136  -0.138399
    C   C80   0.539208  0.960935  0.732136  -0.138532
    H   H33   0.430686  0.071270  0.781248  0.113658
    H   H34   0.928730  0.430685  0.781248  0.113661
    H   H35   0.569315  0.928730  0.781248  0.113667
    H   H36   0.071270  0.569314  0.781248  0.113662
    H   H37   0.430685  0.928730  0.218752  0.113674
    H   H38   0.928730  0.569315  0.218752  0.113670
    H   H39   0.569314  0.071270  0.218752  0.113669
    H   H40   0.071270  0.430686  0.218752  0.113668
    H   H41   0.930685  0.571271  0.281248  0.113666
    H   H42   0.428729  0.930685  0.281248  0.113661
    H   H43   0.069314  0.428730  0.281248  0.113668
    H   H44   0.571270  0.069314  0.281248  0.113659
    H   H45   0.930685  0.428730  0.718752  0.113672
    H   H46   0.428730  0.069315  0.718752  0.113708
    H   H47   0.069315  0.571270  0.718752  0.113666
    H   H48   0.571271  0.930685  0.718752  0.113702
    C   C81   0.500001  0.000000  0.713932  0.070479
    C   C82   0.000000  0.500000  0.713932  0.070185
    C   C83   0.500000  0.000000  0.286069  0.070167
    C   C84   0.000000  0.500001  0.286069  0.070182
    C   C85   0.000000  0.500000  0.213932  0.070181
    C   C86   0.500000  0.000000  0.213932  0.070184
    C   C87   0.000000  0.500000  0.786069  0.070164
    C   C88   0.500000  0.000000  0.786069  0.070158
    C   C89   0.717863  0.957632  0.480074  -0.198016
    C   C90   0.042368  0.717864  0.480076  -0.197884
    C   C91   0.282137  0.042367  0.480075  -0.197855
    C   C92   0.957633  0.282137  0.480073  -0.198112
    C   C93   0.717864  0.042368  0.519924  -0.197802
    C   C94   0.042367  0.282137  0.519926  -0.197897
    C   C95   0.282137  0.957633  0.519927  -0.198059
    C   C96   0.957632  0.717863  0.519926  -0.198099
    C   C97   0.217863  0.457633  0.980075  -0.198107
    C   C98   0.542367  0.217863  0.980074  -0.198140
    C   C99   0.782137  0.542368  0.980074  -0.198054
    C   C100  0.457632  0.782136  0.980075  -0.198098
    C   C101  0.217863  0.542367  0.019926  -0.198100
    C   C102  0.542368  0.782136  0.019925  -0.197880
    C   C103  0.782136  0.457632  0.019925  -0.197837
    C   C104  0.457633  0.217863  0.019926  -0.197940
    H   H49   0.693379  0.924547  0.464031  0.144880
    H   H50   0.075453  0.693380  0.464032  0.144836
    H   H51   0.306620  0.075451  0.464031  0.144833
    H   H52   0.924550  0.306621  0.464029  0.144873
    H   H53   0.693380  0.075453  0.535968  0.144822
    H   H54   0.075450  0.306621  0.535970  0.144842
    H   H55   0.306622  0.924549  0.535971  0.144872
    H   H56   0.924547  0.693379  0.535969  0.144886
    H   H57   0.193379  0.424548  0.964031  0.144877
    H   H58   0.575451  0.193379  0.964030  0.144889
    H   H59   0.806621  0.575452  0.964031  0.144873
    H   H60   0.424547  0.806620  0.964032  0.144873
    H   H61   0.193379  0.575451  0.035970  0.144883
    H   H62   0.575453  0.806621  0.035969  0.144840
    H   H63   0.806620  0.424548  0.035969  0.144833
    H   H64   0.424549  0.193379  0.035970  0.144855
    C   C105  0.781872  0.958748  0.479222  0.057159
    C   C106  0.041253  0.781872  0.479224  0.056736
    C   C107  0.218128  0.041251  0.479223  0.056777
    C   C108  0.958750  0.218129  0.479221  0.057247
    C   C109  0.781872  0.041253  0.520776  0.056711
    C   C110  0.041251  0.218128  0.520777  0.056792
    C   C111  0.218129  0.958750  0.520779  0.057233
    C   C112  0.958748  0.781872  0.520778  0.057220
    C   C113  0.281872  0.458748  0.979223  0.057193
    C   C114  0.541251  0.281871  0.979222  0.057312
    C   C115  0.718128  0.541252  0.979222  0.057208
    C   C116  0.458748  0.718128  0.979223  0.057251
    C   C117  0.281872  0.541251  0.020778  0.057168
    C   C118  0.541252  0.718128  0.020777  0.056726
    C   C119  0.718128  0.458748  0.020776  0.056688
    C   C120  0.458749  0.281872  0.020777  0.056802
    C   C121  0.814242  0.000001  0.499999  -0.250671
    C   C122  0.000000  0.814242  0.500001  -0.250647
    C   C123  0.185759  0.000001  0.500002  -0.250719
    C   C124  0.000000  0.185759  0.499999  -0.250779
    C   C125  0.314241  0.500000  0.000001  -0.250715
    C   C126  0.500000  0.314241  0.999999  -0.250739
    C   C127  0.685758  0.500000  0.999999  -0.250644
    C   C128  0.500000  0.685758  0.000000  -0.250697
    C   C129  0.685602  0.000000  0.499999  0.053800
    C   C130  0.000000  0.685602  0.500001  0.053890
    C   C131  0.314399  0.000000  0.500001  0.053843
    C   C132  0.000000  0.314399  0.500000  0.053898
    C   C133  0.185601  0.500000  0.000000  0.053915
    C   C134  0.500000  0.185601  0.000000  0.053931
    C   C135  0.814398  0.500000  0.000000  0.053880
    C   C136  0.500000  0.814398  0.000000  0.053935
    O   O33   0.017443  0.088750  0.471489  -0.592102
    O   O34   0.911250  0.017442  0.471488  -0.592294
    O   O35   0.982559  0.911249  0.471489  -0.592012
    O   O36   0.088752  0.982557  0.471490  -0.592067
    O   O37   0.017441  0.911250  0.528512  -0.592062
    O   O38   0.911249  0.982559  0.528510  -0.592228
    O   O39   0.982557  0.088752  0.528510  -0.592162
    O   O40   0.088750  0.017443  0.528512  -0.592131
    O   O41   0.517441  0.588751  0.971489  -0.592019
    O   O42   0.411249  0.517442  0.971489  -0.592021
    O   O43   0.482557  0.411249  0.971489  -0.591992
    O   O44   0.588750  0.482558  0.971488  -0.592024
    O   O45   0.517443  0.411249  0.028511  -0.592083
    O   O46   0.411250  0.482557  0.028511  -0.592038
    O   O47   0.482558  0.588750  0.028511  -0.592046
    O   O48   0.588751  0.517442  0.028510  -0.592069
    C   C137  0.000000  0.117851  0.499999  0.692399
    C   C138  0.882149  0.000000  0.499999  0.692540
    C   C139  0.000000  0.882149  0.500001  0.692131
    C   C140  0.117851  0.000000  0.500001  0.692302
    C   C141  0.500000  0.617851  0.000000  0.692203
    C   C142  0.382149  0.500000  0.000001  0.692109
    C   C143  0.500000  0.382149  0.000000  0.692220
    C   C144  0.617851  0.500000  0.999999  0.692182
    Cu  Cu9   0.000001  0.999999  0.466211  0.842570
    Cu  Cu10  0.999999  0.000001  0.533789  0.842516
    Cu  Cu11  0.499999  0.500000  0.966211  0.842396
    Cu  Cu12  0.500001  0.500000  0.033789  0.842454
    C   C145  0.814423  0.914146  0.457067  0.784169
    O   O49   0.816203  0.859486  0.465262  -0.515477
    N   N1    0.837814  0.933068  0.424102  -0.805183
    H   H65   0.885646  0.925086  0.423940  0.343966
    H   H66   0.830087  0.980742  0.421575  0.299068
    C   C146  0.085855  0.814424  0.457070  0.784562
    O   O50   0.140513  0.816212  0.465267  -0.515582
    N   N2    0.066934  0.837810  0.424104  -0.805280
    H   H67   0.074912  0.885642  0.423939  0.343948
    H   H68   0.019261  0.830079  0.421575  0.299081
    C   C147  0.185576  0.085851  0.457068  0.784440
    O   O51   0.183789  0.140511  0.465264  -0.515508
    N   N3    0.162190  0.066928  0.424102  -0.805269
    H   H69   0.114359  0.074906  0.423938  0.343958
    H   H70   0.169921  0.019255  0.421575  0.299101
    C   C148  0.914149  0.185578  0.457065  0.784262
    O   O52   0.859489  0.183798  0.465259  -0.515474
    N   N4    0.933074  0.162186  0.424101  -0.805247
    H   H71   0.925092  0.114355  0.423938  0.343994
    H   H72   0.980748  0.169913  0.421575  0.299055
    C   C149  0.814424  0.085854  0.542931  0.784491
    O   O53   0.816213  0.140513  0.534733  -0.515568
    N   N5    0.837810  0.066933  0.575897  -0.805258
    H   H73   0.885641  0.074911  0.576061  0.343961
    H   H74   0.830078  0.019260  0.578425  0.299088
    C   C150  0.085851  0.185576  0.542933  0.784493
    O   O54   0.140510  0.183791  0.534738  -0.515526
    N   N6    0.066927  0.162190  0.575898  -0.805291
    H   H75   0.074906  0.114358  0.576062  0.343948
    H   H76   0.019254  0.169920  0.578425  0.299112
    C   C151  0.185578  0.914149  0.542935  0.784189
    O   O55   0.183799  0.859488  0.534742  -0.515465
    N   N7    0.162185  0.933073  0.575899  -0.805186
    H   H77   0.114354  0.925091  0.576062  0.343951
    H   H78   0.169912  0.980747  0.578426  0.299046
    C   C152  0.914145  0.814423  0.542933  0.784248
    O   O56   0.859486  0.816204  0.534737  -0.515523
    N   N8    0.933067  0.837814  0.575897  -0.805185
    H   H79   0.925086  0.885645  0.576060  0.343967
    H   H80   0.980741  0.830086  0.578425  0.299029
    C   C153  0.314424  0.414147  0.957068  0.784206
    O   O57   0.316209  0.359488  0.965264  -0.515468
    N   N9    0.337810  0.433070  0.924102  -0.805149
    H   H81   0.385642  0.425091  0.923938  0.343928
    H   H82   0.330080  0.480744  0.921575  0.299029
    C   C154  0.585852  0.314423  0.957066  0.784086
    O   O58   0.640512  0.316204  0.965260  -0.515436
    N   N10   0.566927  0.337813  0.924101  -0.805134
    H   H83   0.574909  0.385644  0.923938  0.343930
    H   H84   0.519254  0.330084  0.921575  0.299037
    C   C155  0.685577  0.585853  0.957066  0.784151
    O   O59   0.683797  0.640513  0.965261  -0.515453
    N   N11   0.662186  0.566930  0.924102  -0.805155
    H   H85   0.614355  0.574912  0.923939  0.343944
    H   H86   0.669914  0.519257  0.921575  0.299038
    C   C156  0.414146  0.685576  0.957068  0.784201
    O   O60   0.359487  0.683792  0.965265  -0.515499
    N   N12   0.433067  0.662188  0.924103  -0.805145
    H   H87   0.425088  0.614357  0.923939  0.343947
    H   H88   0.480741  0.669918  0.921575  0.299009
    C   C157  0.314423  0.585852  0.042934  0.784226
    O   O61   0.316203  0.640512  0.034739  -0.515489
    N   N13   0.337814  0.566929  0.075898  -0.805167
    H   H89   0.385645  0.574910  0.076061  0.343940
    H   H90   0.330086  0.519255  0.078425  0.299043
    C   C158  0.585854  0.685576  0.042932  0.784501
    O   O62   0.640513  0.683793  0.034736  -0.515546
    N   N14   0.566932  0.662187  0.075897  -0.805274
    H   H91   0.574912  0.614356  0.076061  0.343943
    H   H92   0.519259  0.669917  0.078425  0.299100
    C   C159  0.685576  0.414147  0.042931  0.784565
    O   O63   0.683789  0.359488  0.034735  -0.515577
    N   N15   0.662190  0.433069  0.075897  -0.805290
    H   H93   0.614358  0.425090  0.076061  0.343946
    H   H94   0.669920  0.480742  0.078425  0.299102
    C   C160  0.414148  0.314423  0.042933  0.784516
    O   O64   0.359489  0.316207  0.034738  -0.515557
    N   N16   0.433072  0.337811  0.075898  -0.805289
    H   H95   0.425092  0.385643  0.076062  0.343955
    H   H96   0.480746  0.330082  0.078425  0.299096
