# Generated by REPEAT Assigner based on pymatgen
data_DB0-m2_o1_o3_f0_pcu.sym.3
_audit_creation_date              2022-05-24
_audit_creation_method            REPEAT_Assigner
_cell_length_a                    10.965204
_cell_length_b                    9.382488
_cell_length_c                    19.359114
_cell_angle_alpha                 90.000000
_cell_angle_beta                  89.994997
_cell_angle_gamma                 90.000000
_cell_volume                      1991.683056
_symmetry_space_group_name_H-M    P1
_symmetry_Int_Tables_number       1
loop_
    _symmetry_equiv_pos_site_id
    _symmetry_equiv_pos_as_xyz
    1  x,y,z
loop_
    _atom_site_type_symbol
    _atom_site_label
    _atom_site_fract_x
    _atom_site_fract_y
    _atom_site_fract_z
    _atom_type_partial_charge
    O   O1   0.324173  0.618513  0.484396  -0.572202
    O   O2   0.674858  0.380529  0.485817  -0.573252
    O   O3   0.674395  0.618145  0.515684  -0.576171
    O   O4   0.323738  0.380591  0.513747  -0.569476
    C   C1   0.870245  0.499731  0.500732  -0.510271
    C   C2   0.128190  0.500023  0.499227  -0.508511
    C   C3   0.265062  0.499546  0.498800  0.895856
    C   C4   0.733520  0.499477  0.500769  0.900043
    O   O5   0.526819  0.619101  0.400893  -0.563514
    O   O6   0.523906  0.380095  0.599288  -0.574135
    O   O7   0.471729  0.618825  0.599231  -0.562936
    O   O8   0.474797  0.380331  0.400459  -0.573032
    C   C5   0.501075  0.499838  0.368235  0.542011
    C   C6   0.498481  0.499841  0.631740  0.545756
    Cu  Cu1  0.499260  0.640023  0.499983  0.821947
    Cu  Cu2  0.499446  0.358908  0.499871  0.746128
    H   H1   0.381236  0.128032  0.414132  0.152811
    H   H2   0.621132  0.869560  0.584333  0.103620
    H   H3   0.620291  0.130094  0.584103  0.155865
    H   H4   0.380600  0.867803  0.415287  0.102229
    C   C7   0.061863  0.373249  0.494016  0.221825
    C   C8   0.936446  0.626876  0.495019  0.222642
    C   C9   0.936468  0.372783  0.505896  0.224783
    C   C10  0.062462  0.626926  0.505337  0.222919
    C   C11  0.556108  0.392228  0.743520  -0.172412
    C   C12  0.556019  0.609461  0.256456  -0.131357
    C   C13  0.446116  0.390437  0.256430  -0.175928
    C   C14  0.444104  0.609716  0.743937  -0.128534
    H   H5   0.603004  0.307889  0.716373  0.129183
    H   H6   0.601592  0.694719  0.283672  0.115396
    H   H7   0.401363  0.304259  0.283468  0.131932
    H   H8   0.399650  0.696586  0.717283  0.114530
    C   C15  0.557151  0.392278  0.814800  -0.111437
    C   C16  0.556829  0.609033  0.185189  -0.133372
    C   C17  0.444881  0.391121  0.185209  -0.110431
    C   C18  0.442279  0.607872  0.815229  -0.133819
    H   H9   0.606805  0.308801  0.840924  0.099059
    H   H10  0.605068  0.693460  0.158906  0.106418
    H   H11  0.397919  0.305696  0.158988  0.098646
    H   H12  0.393494  0.691513  0.841762  0.106134
    C   C19  0.499161  0.499338  0.851574  0.058509
    C   C20  0.500355  0.500378  0.148700  0.056155
    C   C21  0.433829  0.072400  0.452711  -0.127549
    C   C22  0.567030  0.926064  0.546455  0.022731
    C   C23  0.566094  0.073287  0.546532  -0.131454
    C   C24  0.434084  0.925201  0.452936  0.024847
    C   C25  0.499289  0.500549  0.707611  0.071310
    C   C26  0.501009  0.500022  0.292489  0.076766
    C   C27  0.499676  0.626260  0.964442  -0.146674
    C   C28  0.501609  0.373102  0.036034  -0.155183
    C   C29  0.498538  0.626705  0.035703  -0.153369
    C   C30  0.500159  0.372617  0.964759  -0.150642
    H   H13  0.502807  0.727530  0.938018  0.114479
    H   H14  0.506126  0.271941  0.062485  0.119036
    H   H15  0.494767  0.728180  0.061883  0.115918
    H   H16  0.497987  0.270987  0.938628  0.117351
    N   N1   0.499270  0.853336  0.500355  -0.040793
    N   N2   0.499239  0.145488  0.499657  0.111177
    C   C31  0.500140  0.500136  0.072389  0.092517
    C   C32  0.499598  0.499267  0.928016  0.086452
    C   C33  0.121610  0.238074  0.470191  -0.380560
    H   H17  0.182794  0.262397  0.426155  0.116958
    H   H18  0.171917  0.186584  0.513174  0.116298
    H   H19  0.053861  0.161608  0.449392  0.087031
    C   C34  0.875615  0.763661  0.473915  -0.403870
    H   H20  0.808580  0.743138  0.432177  0.128636
    H   H21  0.831642  0.815110  0.519085  0.122802
    H   H22  0.942089  0.839166  0.451021  0.093626
    C   C35  0.876489  0.236284  0.528269  -0.397772
    H   H23  0.809669  0.258129  0.569840  0.123295
    H   H24  0.832174  0.182579  0.483864  0.121278
    H   H25  0.943602  0.162460  0.551742  0.090747
    C   C36  0.124448  0.763024  0.526361  -0.406042
    H   H26  0.192445  0.741761  0.567490  0.129961
    H   H27  0.167972  0.814317  0.481069  0.122857
    H   H28  0.059174  0.838566  0.549929  0.094226
