# Generated by REPEAT Assigner based on pymatgen
data_DB0-m2_o1_o3_f0_nbo.sym.14
_audit_creation_date              2022-05-24
_audit_creation_method            REPEAT_Assigner
_cell_length_a                    21.489927
_cell_length_b                    21.489911
_cell_length_c                    38.567446
_cell_angle_alpha                 90.000000
_cell_angle_beta                  90.000000
_cell_angle_gamma                 90.000000
_cell_volume                      17811.087520
_symmetry_space_group_name_H-M    P1
_symmetry_Int_Tables_number       1
loop_
    _symmetry_equiv_pos_site_id
    _symmetry_equiv_pos_as_xyz
    1  x,y,z
loop_
    _atom_site_type_symbol
    _atom_site_label
    _atom_site_fract_x
    _atom_site_fract_y
    _atom_site_fract_z
    _atom_type_partial_charge
    O   O1    0.588867  0.051786  0.491094  -0.609785
    O   O2    0.948201  0.588853  0.491099  -0.609584
    O   O3    0.411133  0.948214  0.491094  -0.609801
    O   O4    0.051799  0.411146  0.491099  -0.609589
    O   O5    0.588973  0.948416  0.508964  -0.608026
    O   O6    0.948434  0.411019  0.508982  -0.608247
    O   O7    0.411027  0.051584  0.508964  -0.608006
    O   O8    0.051566  0.588981  0.508983  -0.608226
    O   O9    0.088853  0.551801  0.991099  -0.609662
    O   O10   0.448209  0.088863  0.991093  -0.609753
    O   O11   0.911147  0.448200  0.991099  -0.609691
    O   O12   0.551791  0.911137  0.991093  -0.609774
    O   O13   0.088982  0.448435  0.008980  -0.608283
    O   O14   0.448421  0.911024  0.008964  -0.607950
    O   O15   0.911018  0.551565  0.008980  -0.608280
    O   O16   0.551579  0.088976  0.008964  -0.607956
    C   C1    0.617897  0.000133  0.500031  0.736966
    C   C2    0.999844  0.617894  0.500043  0.737894
    C   C3    0.382103  0.999867  0.500031  0.736945
    C   C4    0.000156  0.382106  0.500044  0.737923
    C   C5    0.117895  0.500156  0.000041  0.738110
    C   C6    0.499860  0.117897  0.000031  0.737131
    C   C7    0.882105  0.499844  0.000041  0.738141
    C   C8    0.500140  0.882103  0.000031  0.737155
    O   O17   0.516182  0.051610  0.549668  -0.650178
    O   O18   0.948390  0.516183  0.549678  -0.650266
    O   O19   0.483818  0.948391  0.549668  -0.650192
    O   O20   0.051610  0.483817  0.549678  -0.650259
    O   O21   0.516286  0.948425  0.450390  -0.651799
    O   O22   0.948433  0.483690  0.450403  -0.651342
    O   O23   0.483714  0.051575  0.450390  -0.651784
    O   O24   0.051567  0.516310  0.450403  -0.651343
    O   O25   0.016182  0.551610  0.049677  -0.650257
    O   O26   0.448390  0.016179  0.049667  -0.650245
    O   O27   0.983818  0.448390  0.049677  -0.650273
    O   O28   0.551610  0.983821  0.049667  -0.650256
    O   O29   0.016308  0.448432  0.950401  -0.651405
    O   O30   0.448426  0.983711  0.950389  -0.651858
    O   O31   0.983692  0.551568  0.950401  -0.651388
    O   O32   0.551574  0.016289  0.950389  -0.651872
    C   C9    0.500000  0.000000  0.565915  0.951798
    C   C10   0.000000  0.500000  0.565924  0.951829
    C   C11   0.500000  0.000000  0.434139  0.960666
    C   C12   0.000000  0.500000  0.434152  0.959908
    C   C13   0.000000  0.500000  0.065924  0.951760
    C   C14   0.500000  0.000000  0.065914  0.951830
    C   C15   0.000000  0.500000  0.934150  0.959943
    C   C16   0.500000  0.000000  0.934139  0.960434
    Cu  Cu1   0.499936  0.061016  0.500029  0.965999
    Cu  Cu2   0.938986  0.499924  0.500041  0.965645
    Cu  Cu3   0.500064  0.938984  0.500029  0.965857
    Cu  Cu4   0.061014  0.500076  0.500041  0.965675
    Cu  Cu5   0.999923  0.561014  0.000039  0.965788
    Cu  Cu6   0.438984  0.999933  0.000028  0.965939
    Cu  Cu7   0.000077  0.438986  0.000039  0.965669
    Cu  Cu8   0.561016  0.000067  0.000028  0.965886
    C   C17   0.535786  0.957008  0.877932  0.034160
    C   C18   0.042946  0.535845  0.877946  0.035743
    C   C19   0.464214  0.042992  0.877932  0.034165
    C   C20   0.957054  0.464155  0.877946  0.035730
    C   C21   0.535151  0.043422  0.122119  0.038596
    C   C22   0.043426  0.464844  0.122128  0.037334
    C   C23   0.464849  0.956579  0.122119  0.038590
    C   C24   0.956574  0.535156  0.122128  0.037328
    C   C25   0.035850  0.457059  0.377948  0.035203
    C   C26   0.542991  0.035788  0.377933  0.035436
    C   C27   0.964150  0.542941  0.377948  0.035180
    C   C28   0.457010  0.964212  0.377933  0.035425
    C   C29   0.035159  0.543423  0.622128  0.036961
    C   C30   0.543423  0.964850  0.622120  0.038525
    C   C31   0.964841  0.456576  0.622128  0.036955
    C   C32   0.456577  0.035150  0.622120  0.038518
    C   C33   0.535992  0.957863  0.842152  -0.175830
    C   C34   0.042014  0.536132  0.842162  -0.176568
    C   C35   0.464008  0.042137  0.842152  -0.175834
    C   C36   0.957986  0.463868  0.842162  -0.176562
    C   C37   0.535387  0.042630  0.157906  -0.183585
    C   C38   0.042638  0.464630  0.157918  -0.182489
    C   C39   0.464613  0.957370  0.157906  -0.183579
    C   C40   0.957362  0.535370  0.157918  -0.182490
    C   C41   0.036133  0.457988  0.342164  -0.175865
    C   C42   0.542133  0.035997  0.342152  -0.176314
    C   C43   0.963867  0.542012  0.342164  -0.175857
    C   C44   0.457867  0.964003  0.342152  -0.176308
    C   C45   0.035366  0.542642  0.657918  -0.182043
    C   C46   0.542632  0.964615  0.657907  -0.183479
    C   C47   0.964634  0.457358  0.657918  -0.182037
    C   C48   0.457368  0.035385  0.657907  -0.183484
    H   H1    0.562696  0.923597  0.828038  0.116724
    H   H2    0.076170  0.562959  0.828046  0.116538
    H   H3    0.437304  0.076403  0.828038  0.116724
    H   H4    0.923830  0.437041  0.828046  0.116538
    H   H5    0.563941  0.075776  0.171671  0.112698
    H   H6    0.075786  0.436107  0.171695  0.112435
    H   H7    0.436059  0.924224  0.171671  0.112696
    H   H8    0.924214  0.563893  0.171695  0.112433
    H   H9    0.062960  0.423831  0.328049  0.116423
    H   H10   0.576396  0.062706  0.328040  0.116768
    H   H11   0.937040  0.576169  0.328049  0.116421
    H   H12   0.423604  0.937294  0.328040  0.116770
    H   H13   0.063885  0.575794  0.671695  0.112413
    H   H14   0.575778  0.936062  0.671671  0.112677
    H   H15   0.936116  0.424206  0.671695  0.112409
    H   H16   0.424222  0.063938  0.671671  0.112677
    C   C49   0.500000  0.000000  0.824205  0.047992
    C   C50   0.000000  0.500000  0.824211  0.048894
    C   C51   0.500000  0.000000  0.176039  0.043058
    C   C52   0.000000  0.500000  0.176050  0.042658
    C   C53   0.000000  0.500000  0.324212  0.048114
    C   C54   0.500000  0.000000  0.324206  0.047955
    C   C55   0.000000  0.500000  0.676049  0.042178
    C   C56   0.500000  0.000000  0.676040  0.042979
    C   C57   0.500000  0.000000  0.896117  -0.227806
    C   C58   0.000000  0.500000  0.896130  -0.229451
    C   C59   0.500000  0.000000  0.103934  -0.222489
    C   C60   0.000000  0.500000  0.103943  -0.222150
    C   C61   0.000000  0.500000  0.396132  -0.228843
    C   C62   0.500000  0.000000  0.396118  -0.229374
    C   C63   0.000000  0.500000  0.603942  -0.221626
    C   C64   0.500000  0.000000  0.603934  -0.222513
    C   C65   0.444728  0.004261  0.768178  -0.135953
    C   C66   0.996009  0.444706  0.768180  -0.136031
    C   C67   0.555272  0.995739  0.768178  -0.135952
    C   C68   0.003991  0.555294  0.768180  -0.136029
    C   C69   0.496334  0.944635  0.232450  -0.179705
    C   C70   0.944620  0.503441  0.232456  -0.178215
    C   C71   0.503666  0.055366  0.232450  -0.179715
    C   C72   0.055381  0.496559  0.232456  -0.178218
    C   C73   0.944708  0.504010  0.268182  -0.136517
    C   C74   0.495739  0.944728  0.268177  -0.136051
    C   C75   0.055293  0.495990  0.268182  -0.136523
    C   C76   0.504261  0.055272  0.268177  -0.136051
    C   C77   0.996578  0.444618  0.732454  -0.178575
    C   C78   0.444634  0.003665  0.732451  -0.179732
    C   C79   0.003422  0.555382  0.732454  -0.178582
    C   C80   0.555366  0.996335  0.732451  -0.179736
    H   H17   0.400898  0.006343  0.781871  0.097618
    H   H18   0.994168  0.400866  0.781873  0.097515
    H   H19   0.599102  0.993657  0.781871  0.097618
    H   H20   0.005832  0.599134  0.781873  0.097515
    H   H21   0.495282  0.900454  0.219114  0.130415
    H   H22   0.900444  0.504333  0.219112  0.129941
    H   H23   0.504718  0.099546  0.219114  0.130423
    H   H24   0.099555  0.495667  0.219112  0.129947
    H   H25   0.900869  0.505866  0.281875  0.097645
    H   H26   0.493658  0.900898  0.281871  0.097642
    H   H27   0.099131  0.494134  0.281875  0.097650
    H   H28   0.506342  0.099102  0.281871  0.097641
    H   H29   0.995702  0.400444  0.719108  0.130025
    H   H30   0.400454  0.004716  0.719115  0.130418
    H   H31   0.004298  0.599556  0.719108  0.130028
    H   H32   0.599546  0.995284  0.719115  0.130418
    C   C81   0.500000  0.000000  0.714228  0.112379
    C   C82   0.000000  0.500000  0.714235  0.111167
    C   C83   0.500000  0.000000  0.286226  0.106943
    C   C84   0.000000  0.500000  0.286230  0.107020
    C   C85   0.000000  0.500000  0.214237  0.110887
    C   C86   0.500000  0.000000  0.214227  0.112339
    C   C87   0.000000  0.500000  0.786228  0.106441
    C   C88   0.500000  0.000000  0.786226  0.106670
    C   C89   0.717220  0.956084  0.481151  -0.247625
    C   C90   0.043895  0.717214  0.481158  -0.247120
    C   C91   0.282780  0.043916  0.481151  -0.247601
    C   C92   0.956105  0.282786  0.481158  -0.247156
    C   C93   0.717280  0.044325  0.518762  -0.246273
    C   C94   0.044368  0.282712  0.518754  -0.245494
    C   C95   0.282720  0.955675  0.518762  -0.246331
    C   C96   0.955632  0.717287  0.518754  -0.245436
    C   C97   0.217216  0.456106  0.981157  -0.247006
    C   C98   0.543909  0.217220  0.981152  -0.247479
    C   C99   0.782784  0.543894  0.981157  -0.246982
    C   C100  0.456091  0.782780  0.981152  -0.247491
    C   C101  0.217286  0.544370  0.018752  -0.245331
    C   C102  0.544333  0.782720  0.018762  -0.246227
    C   C103  0.782714  0.455630  0.018752  -0.245340
    C   C104  0.455667  0.217280  0.018762  -0.246204
    H   H33   0.689574  0.923198  0.466748  0.131855
    H   H34   0.076774  0.689560  0.466756  0.131679
    H   H35   0.310425  0.076802  0.466748  0.131845
    H   H36   0.923226  0.310440  0.466756  0.131694
    H   H37   0.689689  0.077204  0.533205  0.132511
    H   H38   0.077254  0.310291  0.533198  0.132114
    H   H39   0.310311  0.922796  0.533205  0.132516
    H   H40   0.922746  0.689709  0.533198  0.132108
    H   H41   0.189564  0.423227  0.966754  0.131653
    H   H42   0.576793  0.189574  0.966748  0.131802
    H   H43   0.810436  0.576774  0.966754  0.131632
    H   H44   0.423207  0.810426  0.966748  0.131804
    H   H45   0.189706  0.577257  0.033194  0.132125
    H   H46   0.577213  0.810310  0.033205  0.132514
    H   H47   0.810294  0.422743  0.033194  0.132127
    H   H48   0.422787  0.189690  0.033205  0.132505
    C   C105  0.781694  0.957034  0.479799  0.115186
    C   C106  0.042958  0.781689  0.479803  0.114736
    C   C107  0.218306  0.042966  0.479799  0.115142
    C   C108  0.957041  0.218312  0.479803  0.114789
    C   C109  0.781763  0.043403  0.520029  0.114527
    C   C110  0.043437  0.218229  0.520017  0.113792
    C   C111  0.218237  0.956597  0.520029  0.114469
    C   C112  0.956563  0.781771  0.520017  0.113701
    C   C113  0.281691  0.457042  0.979804  0.114695
    C   C114  0.542962  0.281694  0.979801  0.115004
    C   C115  0.718309  0.542957  0.979804  0.114613
    C   C116  0.457038  0.718306  0.979801  0.115028
    C   C117  0.281769  0.543438  0.020018  0.113733
    C   C118  0.543409  0.718237  0.020030  0.114486
    C   C119  0.718231  0.456562  0.020018  0.113749
    C   C120  0.456591  0.281763  0.020030  0.114453
    C   C121  0.813746  0.000212  0.499900  -0.284897
    C   C122  0.999776  0.813747  0.499899  -0.284377
    C   C123  0.186255  0.999788  0.499900  -0.284890
    C   C124  0.000224  0.186253  0.499899  -0.284432
    C   C125  0.313746  0.500224  0.999901  -0.284296
    C   C126  0.499784  0.313746  0.999902  -0.284816
    C   C127  0.686254  0.499776  0.999901  -0.284267
    C   C128  0.500216  0.686254  0.999902  -0.284835
    C   C129  0.685661  0.000179  0.499987  0.074001
    C   C130  0.999789  0.685660  0.499991  0.072985
    C   C131  0.314339  0.999821  0.499987  0.074050
    C   C132  0.000211  0.314340  0.499991  0.073012
    C   C133  0.185660  0.500212  0.999989  0.072715
    C   C134  0.499812  0.185660  0.999986  0.073556
    C   C135  0.814340  0.499788  0.999989  0.072709
    C   C136  0.500188  0.814340  0.999986  0.073558
    O   O33   0.017532  0.088878  0.471354  -0.652563
    O   O34   0.911122  0.017532  0.471354  -0.652597
    O   O35   0.982468  0.911122  0.471354  -0.652558
    O   O36   0.088878  0.982468  0.471354  -0.652588
    O   O37   0.017301  0.911078  0.528436  -0.651594
    O   O38   0.911078  0.982699  0.528436  -0.651685
    O   O39   0.982699  0.088922  0.528436  -0.651606
    O   O40   0.088922  0.017301  0.528436  -0.651697
    O   O41   0.517534  0.588878  0.971358  -0.652444
    O   O42   0.411123  0.517534  0.971358  -0.652469
    O   O43   0.482466  0.411123  0.971358  -0.652453
    O   O44   0.588877  0.482466  0.971358  -0.652468
    O   O45   0.517300  0.411078  0.028440  -0.651651
    O   O46   0.411078  0.482701  0.028440  -0.651514
    O   O47   0.482700  0.588922  0.028440  -0.651647
    O   O48   0.588923  0.517299  0.028440  -0.651505
    C   C137  0.000154  0.118073  0.499896  0.817401
    C   C138  0.881927  0.000153  0.499897  0.817815
    C   C139  0.999846  0.881927  0.499896  0.817449
    C   C140  0.118073  0.999847  0.499897  0.817881
    C   C141  0.500155  0.618073  0.999900  0.817706
    C   C142  0.381927  0.500156  0.999900  0.817250
    C   C143  0.499845  0.381927  0.999900  0.817710
    C   C144  0.618073  0.499844  0.999900  0.817227
    Cu  Cu9   0.000000  0.000000  0.466086  0.998531
    Cu  Cu10  0.000000  0.000000  0.533704  0.996656
    Cu  Cu11  0.500000  0.500000  0.966089  0.998355
    Cu  Cu12  0.500000  0.500000  0.033708  0.996595
    C   C145  0.572126  0.907069  0.895874  0.000716
    C   C146  0.529475  0.853735  0.905810  -0.050543
    H   H49   0.490958  0.870720  0.922334  0.012045
    H   H50   0.509727  0.832540  0.882023  0.018380
    H   H51   0.556468  0.818131  0.920195  0.016056
    H   H52   0.608000  0.888659  0.877965  0.021779
    H   H53   0.596899  0.925017  0.918939  0.017202
    C   C147  0.092895  0.572180  0.895894  -0.000050
    C   C148  0.146221  0.529534  0.905856  -0.050081
    H   H54   0.129216  0.491011  0.922367  0.011900
    H   H55   0.167435  0.509793  0.882074  0.018338
    H   H56   0.181813  0.556512  0.920262  0.015933
    H   H57   0.111347  0.608037  0.877990  0.022096
    H   H58   0.074927  0.596959  0.918952  0.016937
    C   C149  0.427874  0.092931  0.895874  0.000713
    C   C150  0.470525  0.146265  0.905810  -0.050548
    H   H59   0.509042  0.129280  0.922334  0.012043
    H   H60   0.490273  0.167460  0.882023  0.018381
    H   H61   0.443532  0.181869  0.920195  0.016059
    H   H62   0.392000  0.111341  0.877965  0.021782
    H   H63   0.403101  0.074983  0.918939  0.017200
    C   C151  0.907105  0.427820  0.895894  -0.000024
    C   C152  0.853779  0.470466  0.905856  -0.050117
    H   H64   0.870784  0.508989  0.922367  0.011916
    H   H65   0.832565  0.490207  0.882074  0.018345
    H   H66   0.818187  0.443488  0.920262  0.015939
    H   H67   0.888654  0.391963  0.877990  0.022090
    H   H68   0.925073  0.403041  0.918952  0.016934
    C   C153  0.571073  0.093599  0.104119  0.011818
    C   C154  0.527905  0.146618  0.094371  -0.061444
    H   H69   0.489445  0.129345  0.077898  0.013808
    H   H70   0.508098  0.167439  0.118248  0.022006
    H   H71   0.554447  0.182586  0.080006  0.017820
    H   H72   0.607053  0.112234  0.121892  0.020021
    H   H73   0.595676  0.075886  0.080941  0.012891
    C   C155  0.093573  0.428858  0.104125  0.012836
    C   C156  0.146656  0.471935  0.094355  -0.060525
    H   H74   0.129472  0.510318  0.077798  0.013400
    H   H75   0.167434  0.491848  0.118215  0.021825
    H   H76   0.182637  0.445278  0.080065  0.017259
    H   H77   0.112183  0.392859  0.121896  0.019704
    H   H78   0.075828  0.404255  0.080955  0.012883
    C   C157  0.428927  0.906401  0.104119  0.011826
    C   C158  0.472095  0.853382  0.094371  -0.061445
    H   H79   0.510555  0.870655  0.077898  0.013810
    H   H80   0.491902  0.832561  0.118248  0.022007
    H   H81   0.445553  0.817414  0.080006  0.017817
    H   H82   0.392947  0.887766  0.121892  0.020019
    H   H83   0.404324  0.924114  0.080941  0.012889
    C   C159  0.906427  0.571142  0.104125  0.012860
    C   C160  0.853344  0.528065  0.094355  -0.060534
    H   H84   0.870528  0.489682  0.077798  0.013400
    H   H85   0.832566  0.508152  0.118215  0.021825
    H   H86   0.817363  0.554722  0.080065  0.017261
    H   H87   0.887817  0.607141  0.121895  0.019703
    H   H88   0.924172  0.595745  0.080955  0.012876
    C   C161  0.072194  0.407117  0.395897  -0.000510
    C   C162  0.029551  0.353790  0.405859  -0.049726
    H   H89   0.991018  0.370796  0.422362  0.011833
    H   H90   0.009823  0.332567  0.382076  0.018247
    H   H91   0.056524  0.318204  0.420273  0.015874
    H   H92   0.108053  0.388667  0.377993  0.022239
    H   H93   0.096969  0.425091  0.418954  0.017035
    C   C163  0.592930  0.072130  0.395873  0.000194
    C   C164  0.646267  0.029483  0.405811  -0.049292
    H   H94   0.629284  0.990961  0.422331  0.011692
    H   H95   0.667468  0.009743  0.382023  0.018089
    H   H96   0.681866  0.056478  0.420198  0.015641
    H   H97   0.611338  0.108001  0.377963  0.021785
    H   H98   0.574982  0.096905  0.418938  0.017205
    C   C165  0.927806  0.592883  0.395897  -0.000489
    C   C166  0.970449  0.646210  0.405859  -0.049731
    H   H99   0.008982  0.629204  0.422362  0.011835
    H   H100  0.990177  0.667433  0.382076  0.018249
    H   H101  0.943476  0.681796  0.420273  0.015869
    H   H102  0.891947  0.611333  0.377993  0.022237
    H   H103  0.903031  0.574910  0.418954  0.017028
    C   C167  0.407070  0.927870  0.395873  0.000216
    C   C168  0.353733  0.970517  0.405811  -0.049323
    H   H104  0.370716  0.009039  0.422331  0.011701
    H   H105  0.332532  0.990257  0.382023  0.018096
    H   H106  0.318135  0.943522  0.420198  0.015650
    H   H107  0.388663  0.891999  0.377963  0.021778
    H   H108  0.425018  0.903095  0.418938  0.017200
    C   C169  0.071152  0.593563  0.604123  0.012332
    C   C170  0.028078  0.646649  0.594352  -0.060530
    H   H109  0.989674  0.629459  0.577812  0.013440
    H   H110  0.008194  0.667451  0.618214  0.021826
    H   H111  0.054727  0.682612  0.580044  0.017301
    H   H112  0.107155  0.612170  0.621892  0.019838
    H   H113  0.095749  0.575813  0.580953  0.013074
    C   C171  0.593597  0.928926  0.604119  0.011499
    C   C172  0.646617  0.972090  0.594368  -0.060540
    H   H114  0.629345  0.010549  0.577893  0.013575
    H   H115  0.667443  0.991898  0.618242  0.021840
    H   H116  0.682581  0.945544  0.580001  0.017439
    H   H117  0.612233  0.892946  0.621891  0.020063
    H   H118  0.575880  0.904321  0.580942  0.013012
    C   C173  0.928848  0.406437  0.604123  0.012341
    C   C174  0.971922  0.353351  0.594352  -0.060532
    H   H119  0.010326  0.370541  0.577812  0.013434
    H   H120  0.991806  0.332549  0.618214  0.021832
    H   H121  0.945273  0.317388  0.580044  0.017294
    H   H122  0.892845  0.387830  0.621892  0.019840
    H   H123  0.904251  0.424187  0.580953  0.013071
    C   C175  0.406403  0.071074  0.604119  0.011531
    C   C176  0.353383  0.027910  0.594368  -0.060564
    H   H124  0.370655  0.989451  0.577893  0.013587
    H   H125  0.332557  0.008102  0.618242  0.021843
    H   H126  0.317419  0.054456  0.580001  0.017440
    H   H127  0.387767  0.107054  0.621891  0.020059
    H   H128  0.424120  0.095678  0.580942  0.013003
    C   C177  0.818176  0.912495  0.457423  0.125867
    C   C178  0.779024  0.863785  0.439061  -0.311602
    H   H129  0.753055  0.835381  0.458235  0.074765
    H   H130  0.746898  0.886254  0.420341  0.069356
    H   H131  0.810477  0.832469  0.424399  0.077134
    H   H132  0.843482  0.939186  0.437279  0.035571
    H   H133  0.852415  0.887315  0.473567  0.030960
    C   C179  0.087520  0.818161  0.457432  0.126243
    C   C180  0.136256  0.779001  0.439098  -0.311300
    H   H134  0.164625  0.753034  0.458289  0.074694
    H   H135  0.113815  0.746871  0.420369  0.069206
    H   H136  0.167603  0.810442  0.424449  0.077121
    H   H137  0.060854  0.843461  0.437275  0.035431
    H   H138  0.112677  0.852410  0.473579  0.030723
    C   C181  0.181824  0.087505  0.457423  0.125892
    C   C182  0.220976  0.136215  0.439061  -0.311584
    H   H139  0.246945  0.164619  0.458235  0.074760
    H   H140  0.253102  0.113745  0.420341  0.069352
    H   H141  0.189523  0.167531  0.424399  0.077129
    H   H142  0.156518  0.060814  0.437279  0.035554
    H   H143  0.147586  0.112685  0.473567  0.030961
    C   C183  0.912481  0.181838  0.457432  0.126150
    C   C184  0.863744  0.220999  0.439098  -0.311345
    H   H144  0.835375  0.246966  0.458289  0.074702
    H   H145  0.886186  0.253129  0.420368  0.069221
    H   H146  0.832398  0.189557  0.424450  0.077129
    H   H147  0.939144  0.156540  0.437274  0.035473
    H   H148  0.887322  0.147591  0.473579  0.030782
    C   C185  0.818328  0.087929  0.542375  0.126256
    C   C186  0.779278  0.136785  0.560683  -0.306100
    H   H149  0.753359  0.165158  0.541474  0.073329
    H   H150  0.747112  0.114466  0.579438  0.066397
    H   H151  0.810799  0.168097  0.575303  0.076086
    H   H152  0.843573  0.061237  0.562542  0.034341
    H   H153  0.852631  0.112996  0.526219  0.029545
    C   C187  0.087961  0.181657  0.542360  0.128109
    C   C188  0.136898  0.220692  0.560609  -0.307598
    H   H154  0.165208  0.246608  0.541369  0.073613
    H   H155  0.114654  0.252861  0.579391  0.066804
    H   H156  0.168260  0.189165  0.575191  0.076435
    H   H157  0.061273  0.156483  0.562556  0.033904
    H   H158  0.112956  0.147293  0.526211  0.029022
    C   C189  0.181672  0.912071  0.542375  0.126600
    C   C190  0.220722  0.863215  0.560683  -0.306108
    H   H159  0.246641  0.834842  0.541474  0.073327
    H   H160  0.252888  0.885534  0.579438  0.066372
    H   H161  0.189201  0.831903  0.575303  0.076081
    H   H162  0.156427  0.938764  0.562542  0.034245
    H   H163  0.147369  0.887004  0.526218  0.029373
    C   C191  0.912041  0.818343  0.542359  0.128135
    C   C192  0.863102  0.779308  0.560609  -0.307578
    H   H164  0.834792  0.753392  0.541369  0.073603
    H   H165  0.885346  0.747140  0.579391  0.066800
    H   H166  0.831741  0.810836  0.575191  0.076429
    H   H167  0.938726  0.843517  0.562556  0.033897
    H   H168  0.887043  0.852707  0.526211  0.029027
    C   C193  0.318165  0.412484  0.957433  0.126258
    C   C194  0.279007  0.363747  0.939097  -0.311075
    H   H169  0.253038  0.335377  0.958287  0.074624
    H   H170  0.246879  0.386187  0.920366  0.069153
    H   H171  0.310451  0.332401  0.924450  0.077035
    H   H172  0.343463  0.439150  0.937275  0.035404
    H   H173  0.352413  0.387326  0.973579  0.030689
    C   C195  0.587502  0.318176  0.957426  0.126208
    C   C196  0.636213  0.279023  0.939065  -0.311669
    H   H174  0.664615  0.253055  0.958241  0.074788
    H   H175  0.613745  0.246895  0.920345  0.069399
    H   H176  0.667530  0.310475  0.924403  0.077119
    H   H177  0.560812  0.343481  0.937281  0.035444
    H   H178  0.612681  0.352415  0.973570  0.030862
    C   C197  0.681835  0.587516  0.957433  0.126455
    C   C198  0.720993  0.636253  0.939097  -0.311266
    H   H179  0.746963  0.664623  0.958287  0.074694
    H   H180  0.753121  0.613813  0.920366  0.069193
    H   H181  0.689549  0.667600  0.924450  0.077065
    H   H182  0.656537  0.560850  0.937275  0.035366
    H   H183  0.647587  0.612673  0.973579  0.030642
    C   C199  0.412499  0.681824  0.957426  0.126187
    C   C200  0.363787  0.720977  0.939065  -0.311659
    H   H184  0.335385  0.746945  0.958241  0.074788
    H   H185  0.386255  0.753105  0.920345  0.069394
    H   H186  0.332470  0.689525  0.924403  0.077119
    H   H187  0.439189  0.656519  0.937281  0.035449
    H   H188  0.387319  0.647585  0.973570  0.030863
    C   C201  0.318338  0.587962  0.042361  0.127923
    C   C202  0.279301  0.636896  0.060612  -0.307330
    H   H189  0.253386  0.665208  0.041372  0.073532
    H   H190  0.247132  0.614648  0.079392  0.066746
    H   H191  0.310826  0.668257  0.075196  0.076359
    H   H192  0.343514  0.561275  0.062557  0.033927
    H   H193  0.352701  0.612960  0.026213  0.029078
    C   C203  0.587936  0.681671  0.042375  0.126619
    C   C204  0.636795  0.720721  0.060682  -0.306453
    H   H194  0.665167  0.746638  0.041472  0.073399
    H   H195  0.614478  0.752889  0.079437  0.066478
    H   H196  0.668107  0.689200  0.075301  0.076179
    H   H197  0.561245  0.656427  0.062543  0.034233
    H   H198  0.613002  0.647367  0.026219  0.029431
    C   C205  0.681661  0.412038  0.042361  0.127895
    C   C206  0.720699  0.363104  0.060612  -0.307328
    H   H199  0.746614  0.334792  0.041372  0.073532
    H   H200  0.752869  0.385352  0.079392  0.066747
    H   H201  0.689174  0.331743  0.075196  0.076358
    H   H202  0.656486  0.438725  0.062557  0.033936
    H   H203  0.647299  0.387040  0.026213  0.029087
    C   C207  0.412064  0.318329  0.042375  0.126656
    C   C208  0.363205  0.279279  0.060682  -0.306492
    H   H204  0.334833  0.253362  0.041472  0.073418
    H   H205  0.385522  0.247111  0.079437  0.066487
    H   H206  0.331893  0.310800  0.075302  0.076184
    H   H207  0.438755  0.343573  0.062543  0.034231
    H   H208  0.386998  0.352633  0.026219  0.029419
