# Generated by REPEAT Assigner based on pymatgen
data_DB0-m2_o1_o3_f0_pcu_sqe
_audit_creation_date              2022-05-24
_audit_creation_method            REPEAT_Assigner
_cell_length_a                    15.367640
_cell_length_b                    15.366033
_cell_length_c                    18.047532
_cell_angle_alpha                 90.000000
_cell_angle_beta                  90.000000
_cell_angle_gamma                 90.000000
_cell_volume                      4261.738036
_symmetry_space_group_name_H-M    P1
_symmetry_Int_Tables_number       1
loop_
    _symmetry_equiv_pos_site_id
    _symmetry_equiv_pos_as_xyz
    1  x,y,z
loop_
    _atom_site_type_symbol
    _atom_site_label
    _atom_site_fract_x
    _atom_site_fract_y
    _atom_site_fract_z
    _atom_type_partial_charge
    O   O1   0.588030  0.409524  0.063293  -0.606916
    O   O2   0.411970  0.590476  0.936707  -0.606970
    O   O3   0.411970  0.590476  0.063293  -0.606911
    O   O4   0.588030  0.409524  0.936707  -0.606978
    O   O5   0.590332  0.588180  0.936711  -0.602845
    O   O6   0.409668  0.411820  0.063288  -0.602883
    O   O7   0.409668  0.411820  0.936711  -0.602836
    O   O8   0.590332  0.588180  0.063288  -0.602887
    O   O9   0.090589  0.912042  0.063292  -0.606163
    O   O10  0.909411  0.087958  0.936708  -0.606267
    O   O11  0.909411  0.087958  0.063292  -0.606158
    O   O12  0.090589  0.912042  0.936708  -0.606279
    O   O13  0.087815  0.090729  0.936713  -0.603506
    O   O14  0.912185  0.909271  0.063285  -0.603545
    O   O15  0.912185  0.909271  0.936713  -0.603495
    O   O16  0.087815  0.090729  0.063285  -0.603559
    C   C1   0.120865  0.882709  0.000000  0.678380
    C   C2   0.879135  0.117291  0.000000  0.678369
    C   C3   0.117142  0.121013  0.000002  0.678328
    C   C4   0.882858  0.878987  0.000002  0.678330
    C   C5   0.617408  0.379305  0.000000  0.682470
    C   C6   0.382592  0.620695  0.000000  0.682457
    C   C7   0.620536  0.617574  0.000001  0.679805
    C   C8   0.379464  0.382426  0.000001  0.679782
    H   H1   0.363231  0.499358  0.806237  0.103960
    H   H2   0.636769  0.500642  0.193763  0.103984
    H   H3   0.636769  0.500642  0.806237  0.103962
    H   H4   0.363231  0.499358  0.193763  0.103975
    H   H5   0.863353  0.994500  0.806227  0.104395
    H   H6   0.136647  0.005500  0.193773  0.104357
    H   H7   0.136647  0.005500  0.806227  0.104395
    H   H8   0.863353  0.994500  0.193773  0.104364
    C   C9   0.422902  0.499942  0.699511  -0.238031
    C   C10  0.577098  0.500058  0.300489  -0.238006
    C   C11  0.577098  0.500058  0.699511  -0.238037
    C   C12  0.422902  0.499942  0.300489  -0.238005
    C   C13  0.922948  0.997332  0.699505  -0.238433
    C   C14  0.077052  0.002668  0.300495  -0.238415
    C   C15  0.077052  0.002668  0.699505  -0.238448
    C   C16  0.922948  0.997332  0.300495  -0.238396
    H   H9   0.360920  0.498038  0.671324  0.117573
    H   H10  0.639080  0.501962  0.328676  0.117570
    H   H11  0.639080  0.501962  0.671324  0.117576
    H   H12  0.360920  0.498038  0.328676  0.117568
    H   H13  0.861062  0.993419  0.671308  0.117876
    H   H14  0.138938  0.006581  0.328692  0.117873
    H   H15  0.138938  0.006581  0.671308  0.117881
    H   H16  0.861062  0.993419  0.328692  0.117867
    Cu  Cu1  0.500000  0.500000  0.073955  0.934199
    Cu  Cu2  0.500000  0.500000  0.926045  0.934296
    Cu  Cu3  0.000000  0.000000  0.073954  0.939101
    Cu  Cu4  0.000000  0.000000  0.926046  0.939252
    N   N1   0.500000  0.500000  0.813633  -0.172339
    N   N2   0.500000  0.500000  0.186367  -0.172346
    N   N3   0.000000  0.000000  0.813625  -0.174535
    N   N4   0.000000  0.000000  0.186375  -0.174641
    C   C17  0.562313  0.454102  0.538346  -0.143555
    C   C18  0.437687  0.545898  0.461654  -0.143538
    C   C19  0.437687  0.545898  0.538346  -0.143554
    C   C20  0.562313  0.454102  0.461654  -0.143540
    C   C21  0.063637  0.955937  0.538354  -0.146088
    C   C22  0.936363  0.044063  0.461646  -0.146063
    C   C23  0.936363  0.044063  0.538354  -0.146083
    C   C24  0.063637  0.955937  0.461646  -0.146067
    C   C25  0.424077  0.499848  0.776204  0.101772
    C   C26  0.575923  0.500152  0.223796  0.101737
    C   C27  0.575923  0.500152  0.776204  0.101774
    C   C28  0.424077  0.499848  0.223796  0.101746
    C   C29  0.924133  0.997165  0.776194  0.100992
    C   C30  0.075867  0.002835  0.223806  0.101050
    C   C31  0.075867  0.002835  0.776194  0.101002
    C   C32  0.924133  0.997165  0.223806  0.101030
    C   C33  0.279306  0.284107  0.933846  -0.080715
    C   C34  0.720694  0.715893  0.066154  -0.080769
    C   C35  0.720694  0.715893  0.933846  -0.080703
    C   C36  0.279306  0.284107  0.066154  -0.080782
    C   C37  0.284209  0.720792  0.066153  -0.080909
    C   C38  0.715791  0.279208  0.933847  -0.080879
    C   C39  0.715791  0.279209  0.066153  -0.080859
    C   C40  0.284209  0.720792  0.933847  -0.080880
    C   C41  0.784255  0.779076  0.933843  -0.081317
    C   C42  0.215745  0.220924  0.066157  -0.081282
    C   C43  0.215745  0.220924  0.933843  -0.081315
    C   C44  0.784255  0.779076  0.066157  -0.081280
    C   C45  0.779101  0.215775  0.066156  -0.082519
    C   C46  0.220899  0.784225  0.933844  -0.082464
    C   C47  0.220898  0.784225  0.066156  -0.082472
    C   C48  0.779101  0.215775  0.933844  -0.082463
    H   H17  0.303485  0.307968  0.881428  0.095300
    H   H18  0.696515  0.692032  0.118572  0.095295
    H   H19  0.696515  0.692032  0.881428  0.095296
    H   H20  0.303485  0.307968  0.118572  0.095301
    H   H21  0.308116  0.696659  0.118572  0.095548
    H   H22  0.691884  0.303340  0.881428  0.095552
    H   H23  0.691884  0.303341  0.118572  0.095547
    H   H24  0.308116  0.696660  0.881428  0.095554
    H   H25  0.808255  0.803106  0.881417  0.095731
    H   H26  0.191745  0.196894  0.118583  0.095709
    H   H27  0.191745  0.196894  0.881417  0.095731
    H   H28  0.808255  0.803106  0.118583  0.095707
    H   H29  0.803180  0.191826  0.118583  0.095821
    H   H30  0.196821  0.808174  0.881417  0.095820
    H   H31  0.196820  0.808174  0.118583  0.095822
    H   H32  0.803179  0.191826  0.881417  0.095820
    C   C49  0.000000  0.000000  0.422311  0.074859
    C   C50  0.000000  0.000000  0.577689  0.074874
    C   C51  0.500000  0.500000  0.422314  0.072455
    C   C52  0.500000  0.500000  0.577686  0.072477
    C   C53  0.183833  0.188905  0.999999  -0.054329
    C   C54  0.816167  0.811095  0.999999  -0.054337
    C   C55  0.188812  0.816071  0.000000  -0.052223
    C   C56  0.811188  0.183929  0.000000  -0.052224
    C   C57  0.688511  0.684156  0.999999  -0.056224
    C   C58  0.311489  0.315844  0.999999  -0.056204
    C   C59  0.684004  0.311343  0.000000  -0.055105
    C   C60  0.315996  0.688657  0.000000  -0.055102
    H   H33  0.610628  0.415700  0.566995  0.116539
    H   H34  0.389372  0.584300  0.433005  0.116535
    H   H35  0.389372  0.584300  0.566995  0.116538
    H   H36  0.610628  0.415700  0.433005  0.116535
    H   H37  0.113084  0.919028  0.567046  0.117870
    H   H38  0.886916  0.080972  0.432954  0.117864
    H   H39  0.886916  0.080972  0.567046  0.117868
    H   H40  0.113084  0.919028  0.432954  0.117865
    C   C61  0.500000  0.500000  0.659884  0.159724
    C   C62  0.500000  0.500000  0.340116  0.159717
    C   C63  0.000000  0.000000  0.659882  0.160693
    C   C64  0.000000  0.000000  0.340118  0.160660
