# Generated by REPEAT Assigner based on pymatgen
data_DB0-m2_o1_o2_f0_pcu.sym.15_sqe
_audit_creation_date              2022-05-24
_audit_creation_method            REPEAT_Assigner
_cell_length_a                    10.859500
_cell_length_b                    9.537517
_cell_length_c                    15.123530
_cell_angle_alpha                 90.000000
_cell_angle_beta                  90.005960
_cell_angle_gamma                 90.000000
_cell_volume                      1566.384226
_symmetry_space_group_name_H-M    P1
_symmetry_Int_Tables_number       1
loop_
    _symmetry_equiv_pos_site_id
    _symmetry_equiv_pos_as_xyz
    1  x,y,z
loop_
    _atom_site_type_symbol
    _atom_site_label
    _atom_site_fract_x
    _atom_site_fract_y
    _atom_site_fract_z
    _atom_type_partial_charge
    O   O1   0.309962  0.615735  0.501534  -0.635086
    O   O2   0.666906  0.375613  0.512954  -0.635271
    O   O3   0.667631  0.616337  0.511830  -0.631146
    O   O4   0.309244  0.375538  0.512989  -0.612426
    N   N1   0.489303  0.847709  0.508856  -0.045053
    N   N2   0.487576  0.144481  0.510411  0.013703
    C   C1   0.251691  0.495463  0.507655  0.848585
    C   C2   0.725235  0.495721  0.511969  0.877433
    O   O5   0.501501  0.615952  0.381303  -0.635804
    O   O6   0.482863  0.375606  0.638494  -0.521405
    O   O7   0.484268  0.616645  0.637862  -0.656371
    O   O8   0.485565  0.375763  0.381362  -0.522053
    C   C3   0.497217  0.495946  0.339833  0.655452
    C   C4   0.480848  0.496497  0.679862  0.674170
    Cu  Cu1  0.488834  0.636703  0.509399  0.982563
    Cu  Cu2  0.487791  0.355307  0.509981  0.728372
    C   C5   0.416830  0.069237  0.453036  -0.029094
    C   C6   0.569471  0.923999  0.559654  -0.006010
    C   C7   0.559268  0.069139  0.566478  -0.046647
    C   C8   0.406735  0.924036  0.460008  -0.036631
    C   C9   0.051565  0.369567  0.511354  0.012777
    C   C10  0.925360  0.619374  0.506914  0.078906
    C   C11  0.924487  0.369924  0.511890  0.005708
    C   C12  0.052192  0.619068  0.509425  0.165969
    C   C13  0.471318  0.620047  0.106183  -0.141219
    C   C14  0.443771  0.380632  0.915438  -0.117469
    C   C15  0.515533  0.616501  0.913985  -0.152633
    C   C16  0.524285  0.377938  0.104257  -0.128204
    H   H1   0.444618  0.715986  0.073485  0.090521
    H   H2   0.413479  0.287847  0.950176  0.099532
    H   H3   0.549229  0.709484  0.946572  0.094650
    H   H4   0.547415  0.283284  0.068892  0.108284
    C   C17  0.478890  0.620281  0.197041  -0.046225
    C   C18  0.441081  0.380450  0.823978  -0.107505
    C   C19  0.509453  0.617269  0.823145  -0.047014
    C   C20  0.528765  0.377398  0.195589  -0.085830
    H   H5   0.462502  0.717655  0.231017  0.088431
    H   H6   0.411206  0.287180  0.789617  0.091664
    H   H7   0.533844  0.712230  0.789096  0.087682
    H   H8   0.552758  0.281711  0.229786  0.076659
    C   C21  0.502393  0.497599  0.242681  -0.041174
    C   C22  0.476799  0.498020  0.777122  -0.039641
    H   H9   0.098607  0.270002  0.513480  0.083507
    H   H10  0.878200  0.718626  0.503278  0.041108
    H   H11  0.876035  0.271110  0.513233  0.087613
    H   H12  0.100468  0.717701  0.511475  0.001202
    C   C23  0.492242  0.498350  0.058727  0.053655
    C   C24  0.483702  0.498020  0.961307  0.070124
    C   C25  0.860481  0.494962  0.510198  -0.317010
    C   C26  0.116377  0.494527  0.509214  -0.326910
    C   C27  0.350021  0.134060  0.378711  0.655640
    O   O9   0.260159  0.207364  0.391746  -0.409079
    O   O10  0.373980  0.089851  0.295694  -0.456165
    C   C28  0.303779  0.134533  0.225600  0.497030
    C   C29  0.345638  0.061335  0.141880  -0.330019
    H   H13  0.312572  0.249400  0.217854  -0.043729
    H   H14  0.205503  0.109968  0.237063  -0.062830
    H   H15  0.445451  0.078720  0.131530  0.100971
    H   H16  0.293392  0.103670  0.084822  0.058652
    H   H17  0.328287  0.947114  0.147505  0.104531
    C   C30  0.675858  0.862943  0.607660  0.617792
    O   O11  0.661797  0.770564  0.661869  -0.379545
    O   O12  0.787485  0.924578  0.601606  -0.414403
    C   C31  0.880306  0.891431  0.659902  0.534650
    C   C32  0.991979  0.981242  0.640748  -0.260204
    H   H18  0.905704  0.779544  0.653998  -0.131919
    H   H19  0.850027  0.911092  0.728668  -0.057644
    H   H20  0.026796  0.957676  0.573573  0.083311
    H   H21  0.064925  0.958141  0.689923  0.045360
    H   H22  0.965966  0.093438  0.644998  0.061617
    C   C33  0.621560  0.133202  0.643057  0.698805
    O   O13  0.712932  0.205051  0.632964  -0.423141
    O   O14  0.591216  0.090522  0.725200  -0.470557
    C   C34  0.659112  0.132230  0.797182  0.488848
    C   C35  0.609756  0.060972  0.879193  -0.347611
    H   H23  0.654566  0.247506  0.804880  -0.039785
    H   H24  0.756724  0.102114  0.788605  -0.061706
    H   H25  0.508938  0.077494  0.883409  0.105924
    H   H26  0.655333  0.104768  0.938725  0.064358
    H   H27  0.629188  0.947083  0.874813  0.110855
    C   C36  0.304773  0.860958  0.408205  0.648412
    O   O15  0.325481  0.773197  0.352145  -0.381238
    O   O16  0.190531  0.916910  0.412108  -0.431784
    C   C37  0.103617  0.879731  0.350171  0.573996
    C   C38  0.988379  0.967828  0.361522  -0.251544
    H   H28  0.080181  0.767185  0.356272  -0.134167
    H   H29  0.140736  0.897208  0.282972  -0.078883
    H   H30  0.944768  0.944535  0.426017  0.052883
    H   H31  0.922193  0.943119  0.307810  0.047610
    H   H32  0.012357  0.080746  0.358432  0.060270
