# Generated by REPEAT Assigner based on pymatgen
data_DB0-m2_o1_o2_f0_pcu.sym.28
_audit_creation_date              2022-05-24
_audit_creation_method            REPEAT_Assigner
_cell_length_a                    10.870125
_cell_length_b                    9.412369
_cell_length_c                    15.264745
_cell_angle_alpha                 90.000000
_cell_angle_beta                  90.005911
_cell_angle_gamma                 90.000000
_cell_volume                      1561.791476
_symmetry_space_group_name_H-M    P1
_symmetry_Int_Tables_number       1
loop_
    _symmetry_equiv_pos_site_id
    _symmetry_equiv_pos_as_xyz
    1  x,y,z
loop_
    _atom_site_type_symbol
    _atom_site_label
    _atom_site_fract_x
    _atom_site_fract_y
    _atom_site_fract_z
    _atom_type_partial_charge
    O   O1   0.323615  0.621034  0.501305  -0.573157
    O   O2   0.681294  0.376685  0.500651  -0.540455
    O   O3   0.681229  0.620474  0.505417  -0.595788
    O   O4   0.323790  0.377235  0.495859  -0.542574
    N   N1   0.501837  0.853349  0.499598  -0.036916
    N   N2   0.502692  0.144242  0.502692  0.156341
    C   C1   0.265630  0.499236  0.497334  0.677205
    C   C2   0.739169  0.498448  0.502974  0.691005
    O   O5   0.500826  0.618710  0.373083  -0.462298
    O   O6   0.503318  0.379113  0.628802  -0.511926
    O   O7   0.494810  0.622676  0.627596  -0.390545
    O   O8   0.510354  0.375626  0.374156  -0.380431
    C   C3   0.506370  0.496975  0.331429  0.520126
    C   C4   0.496679  0.501585  0.669859  0.588877
    Cu  Cu1  0.502990  0.640761  0.499817  0.775974
    Cu  Cu2  0.502387  0.356967  0.501765  0.707510
    H   H1   0.342825  0.131440  0.425443  0.206351
    H   H2   0.670881  0.867043  0.566974  0.193232
    H   H3   0.670664  0.125244  0.571058  0.083231
    H   H4   0.345438  0.871343  0.419406  0.062911
    C   C5   0.413746  0.073504  0.459649  -0.236063
    C   C6   0.594558  0.924083  0.538374  -0.059449
    C   C7   0.595216  0.070638  0.539894  0.003359
    C   C8   0.414167  0.926876  0.456929  0.188920
    C   C9   0.064349  0.412206  0.441158  0.001474
    C   C10  0.940429  0.584986  0.556832  0.057666
    C   C11  0.937337  0.410817  0.443371  0.031172
    C   C12  0.066997  0.585922  0.554810  0.002322
    C   C13  0.511993  0.624047  0.096077  -0.218611
    C   C14  0.438850  0.391343  0.903590  -0.174000
    C   C15  0.543284  0.612621  0.904443  -0.174635
    C   C16  0.483788  0.374848  0.095214  -0.248692
    H   H5   0.517663  0.726510  0.064867  0.162495
    H   H6   0.391492  0.304545  0.935322  0.136788
    H   H7   0.588892  0.699650  0.936547  0.134188
    H   H8   0.473039  0.274441  0.062428  0.164996
    C   C17  0.521479  0.622775  0.186258  0.096421
    C   C18  0.441248  0.390737  0.813134  0.066516
    C   C19  0.538256  0.617856  0.814519  0.087009
    C   C20  0.485318  0.372973  0.185700  0.182800
    C   C21  0.505518  0.497031  0.233601  -0.112276
    C   C22  0.492646  0.503452  0.766974  -0.113201
    C   C23  0.495427  0.500040  0.048644  0.136434
    C   C24  0.492661  0.500791  0.951037  0.108883
    C   C25  0.874287  0.497803  0.501283  -0.098554
    C   C26  0.130264  0.499521  0.497073  -0.065215
    C   C27  0.552627  0.755390  0.227260  0.241799
    N   N3   0.578554  0.861899  0.260256  -0.356980
    C   C28  0.380690  0.275210  0.768999  0.302243
    N   N4   0.332258  0.182209  0.733326  -0.399103
    C   C29  0.580104  0.746498  0.773890  0.291485
    N   N5   0.612034  0.852071  0.742529  -0.391466
    C   C30  0.461679  0.238736  0.226763  0.196395
    N   N6   0.441980  0.130084  0.259193  -0.314211
    C   C31  0.126231  0.329019  0.375717  0.289968
    N   N7   0.175686  0.262487  0.322551  -0.366588
    C   C32  0.880444  0.668583  0.622541  0.238730
    N   N8   0.833965  0.736491  0.676232  -0.315521
    C   C33  0.872593  0.322658  0.381948  0.332827
    N   N9   0.820474  0.251839  0.332376  -0.387819
    C   C34  0.131451  0.671722  0.617471  0.340462
    N   N10  0.183178  0.740839  0.668110  -0.391642
