# Generated by REPEAT Assigner based on pymatgen
data_DB0-m2_o1_o3_f0_nbo.sym.16
_audit_creation_date              2022-05-24
_audit_creation_method            REPEAT_Assigner
_cell_length_a                    21.535767
_cell_length_b                    21.535767
_cell_length_c                    38.582290
_cell_angle_alpha                 90.000000
_cell_angle_beta                  90.000000
_cell_angle_gamma                 90.000000
_cell_volume                      17894.052636
_symmetry_space_group_name_H-M    P1
_symmetry_Int_Tables_number       1
loop_
    _symmetry_equiv_pos_site_id
    _symmetry_equiv_pos_as_xyz
    1  x,y,z
loop_
    _atom_site_type_symbol
    _atom_site_label
    _atom_site_fract_x
    _atom_site_fract_y
    _atom_site_fract_z
    _atom_type_partial_charge
    O   O1    0.588554  0.051232  0.509466  -0.588927
    O   O2    0.948768  0.588554  0.509466  -0.588889
    O   O3    0.411446  0.948768  0.509466  -0.588943
    O   O4    0.051232  0.411446  0.509466  -0.588962
    O   O5    0.588554  0.948768  0.490534  -0.588917
    O   O6    0.948768  0.411446  0.490534  -0.588905
    O   O7    0.411446  0.051232  0.490534  -0.588945
    O   O8    0.051232  0.588554  0.490534  -0.588940
    O   O9    0.088554  0.551232  0.009466  -0.588922
    O   O10   0.448768  0.088554  0.009466  -0.588947
    O   O11   0.911447  0.448768  0.009466  -0.588986
    O   O12   0.551232  0.911446  0.009466  -0.588976
    O   O13   0.088554  0.448768  0.990534  -0.588977
    O   O14   0.448768  0.911446  0.990534  -0.588952
    O   O15   0.911447  0.551232  0.990534  -0.588930
    O   O16   0.551232  0.088554  0.990534  -0.588972
    C   C1    0.617750  0.000000  0.500000  0.724723
    C   C2    0.000000  0.617750  0.500000  0.724676
    C   C3    0.382250  0.000000  0.500000  0.724776
    C   C4    0.000000  0.382250  0.500000  0.724720
    C   C5    0.117750  0.500000  0.000000  0.724764
    C   C6    0.500000  0.117750  0.000000  0.724795
    C   C7    0.882250  0.500000  0.000000  0.724819
    C   C8    0.500000  0.882250  0.000000  0.724847
    O   O17   0.483085  0.051254  0.549540  -0.591679
    O   O18   0.948746  0.483085  0.549540  -0.591635
    O   O19   0.516915  0.948746  0.549540  -0.591693
    O   O20   0.051254  0.516915  0.549540  -0.591633
    O   O21   0.483085  0.948746  0.450460  -0.591643
    O   O22   0.948746  0.516915  0.450460  -0.591632
    O   O23   0.516915  0.051254  0.450460  -0.591588
    O   O24   0.051254  0.483085  0.450460  -0.591678
    O   O25   0.983085  0.551254  0.049540  -0.591623
    O   O26   0.448746  0.983085  0.049540  -0.591644
    O   O27   0.016915  0.448746  0.049540  -0.591684
    O   O28   0.551254  0.016915  0.049540  -0.591604
    O   O29   0.983085  0.448746  0.950460  -0.591672
    O   O30   0.448746  0.016915  0.950460  -0.591667
    O   O31   0.016915  0.551254  0.950460  -0.591563
    O   O32   0.551254  0.983085  0.950460  -0.591676
    C   C9    0.500000  0.000000  0.565821  0.641647
    C   C10   0.000000  0.500000  0.565821  0.641498
    C   C11   0.500000  0.000000  0.434179  0.641486
    C   C12   0.000000  0.500000  0.434179  0.641525
    C   C13   0.000000  0.500000  0.065821  0.641574
    C   C14   0.500000  0.000000  0.065821  0.641522
    C   C15   0.000000  0.500000  0.934179  0.641395
    C   C16   0.500000  0.000000  0.934179  0.641499
    Cu  Cu1   0.500000  0.060694  0.500000  0.947204
    Cu  Cu2   0.939306  0.500000  0.500000  0.947368
    Cu  Cu3   0.500000  0.939306  0.500000  0.947201
    Cu  Cu4   0.060694  0.500000  0.500000  0.947096
    Cu  Cu5   0.000000  0.560694  0.000000  0.947337
    Cu  Cu6   0.439306  0.000000  0.000000  0.947265
    Cu  Cu7   0.000000  0.439306  0.000000  0.947109
    Cu  Cu8   0.560694  0.000000  0.000000  0.947201
    C   C17   0.554696  0.991458  0.878121  -0.096129
    C   C18   0.008542  0.554696  0.878121  -0.096153
    C   C19   0.445304  0.008542  0.878121  -0.096137
    C   C20   0.991458  0.445304  0.878121  -0.096137
    C   C21   0.554696  0.008542  0.121879  -0.096237
    C   C22   0.008542  0.445304  0.121879  -0.096237
    C   C23   0.445304  0.991458  0.121879  -0.096217
    C   C24   0.991458  0.554696  0.121879  -0.096228
    C   C25   0.054696  0.491458  0.378121  -0.096244
    C   C26   0.508542  0.054696  0.378121  -0.096161
    C   C27   0.945304  0.508542  0.378121  -0.096241
    C   C28   0.491458  0.945304  0.378121  -0.096195
    C   C29   0.054696  0.508542  0.621879  -0.096273
    C   C30   0.508542  0.945304  0.621879  -0.096080
    C   C31   0.945304  0.491458  0.621879  -0.096257
    C   C32   0.491458  0.054696  0.621879  -0.096177
    H   H1    0.598232  0.985321  0.891605  0.122360
    H   H2    0.014679  0.598232  0.891605  0.122350
    H   H3    0.401768  0.014679  0.891605  0.122361
    H   H4    0.985321  0.401768  0.891605  0.122360
    H   H5    0.598232  0.014679  0.108395  0.122366
    H   H6    0.014679  0.401768  0.108395  0.122385
    H   H7    0.401768  0.985321  0.108395  0.122381
    H   H8    0.985321  0.598232  0.108395  0.122385
    H   H9    0.098232  0.485321  0.391605  0.122387
    H   H10   0.514679  0.098232  0.391605  0.122347
    H   H11   0.901768  0.514679  0.391605  0.122387
    H   H12   0.485321  0.901768  0.391605  0.122378
    H   H13   0.098232  0.514679  0.608395  0.122382
    H   H14   0.514679  0.901768  0.608395  0.122364
    H   H15   0.901768  0.485321  0.608395  0.122394
    H   H16   0.485321  0.098232  0.608395  0.122381
    C   C33   0.554740  0.991769  0.842398  -0.157560
    C   C34   0.008232  0.554740  0.842398  -0.157531
    C   C35   0.445260  0.008232  0.842398  -0.157545
    C   C36   0.991769  0.445260  0.842398  -0.157548
    C   C37   0.554740  0.008232  0.157602  -0.157322
    C   C38   0.008232  0.445260  0.157602  -0.157331
    C   C39   0.445260  0.991769  0.157602  -0.157336
    C   C40   0.991769  0.554740  0.157602  -0.157340
    C   C41   0.054740  0.491769  0.342398  -0.157337
    C   C42   0.508232  0.054740  0.342398  -0.157479
    C   C43   0.945260  0.508232  0.342398  -0.157330
    C   C44   0.491769  0.945260  0.342398  -0.157389
    C   C45   0.054740  0.508232  0.657602  -0.157296
    C   C46   0.508232  0.945260  0.657602  -0.157485
    C   C47   0.945260  0.491769  0.657602  -0.157305
    C   C48   0.491769  0.054740  0.657602  -0.157366
    H   H17   0.598500  0.986815  0.829002  0.112199
    H   H18   0.013185  0.598499  0.829002  0.112197
    H   H19   0.401501  0.013185  0.829002  0.112197
    H   H20   0.986815  0.401501  0.829002  0.112194
    H   H21   0.598500  0.013185  0.170998  0.112125
    H   H22   0.013185  0.401501  0.170998  0.112118
    H   H23   0.401501  0.986815  0.170998  0.112120
    H   H24   0.986815  0.598499  0.170998  0.112121
    H   H25   0.098499  0.486815  0.329002  0.112122
    H   H26   0.513185  0.098499  0.329002  0.112185
    H   H27   0.901501  0.513185  0.329002  0.112115
    H   H28   0.486815  0.901501  0.329002  0.112131
    H   H29   0.098499  0.513185  0.670998  0.112113
    H   H30   0.513185  0.901501  0.670998  0.112146
    H   H31   0.901501  0.486815  0.670998  0.112110
    H   H32   0.486815  0.098499  0.670998  0.112117
    C   C49   0.500000  0.000000  0.824208  0.096017
    C   C50   0.000000  0.500000  0.824208  0.096003
    C   C51   0.500000  0.000000  0.175792  0.095779
    C   C52   0.000000  0.500000  0.175792  0.095797
    C   C53   0.000000  0.500000  0.324208  0.095793
    C   C54   0.500000  0.000000  0.324208  0.095896
    C   C55   0.000000  0.500000  0.675792  0.095753
    C   C56   0.500000  0.000000  0.675792  0.095867
    C   C57   0.500000  0.000000  0.896197  -0.017333
    C   C58   0.000000  0.500000  0.896197  -0.017290
    C   C59   0.500000  0.000000  0.103803  -0.017336
    C   C60   0.000000  0.500000  0.103803  -0.017345
    C   C61   0.000000  0.500000  0.396197  -0.017303
    C   C62   0.500000  0.000000  0.396197  -0.017340
    C   C63   0.000000  0.500000  0.603803  -0.017284
    C   C64   0.500000  0.000000  0.603803  -0.017460
    C   C65   0.460955  0.039177  0.767860  -0.141621
    C   C66   0.960823  0.460955  0.767860  -0.141592
    C   C67   0.539045  0.960823  0.767860  -0.141611
    C   C68   0.039177  0.539045  0.767860  -0.141603
    C   C69   0.460955  0.960823  0.232140  -0.141616
    C   C70   0.960823  0.539045  0.232140  -0.141624
    C   C71   0.539045  0.039177  0.232140  -0.141625
    C   C72   0.039177  0.460955  0.232140  -0.141616
    C   C73   0.960955  0.539177  0.267860  -0.141599
    C   C74   0.460823  0.960955  0.267860  -0.141595
    C   C75   0.039045  0.460823  0.267860  -0.141610
    C   C76   0.539177  0.039045  0.267860  -0.141616
    C   C77   0.960955  0.460823  0.732140  -0.141630
    C   C78   0.460823  0.039045  0.732140  -0.141589
    C   C79   0.039045  0.539177  0.732140  -0.141633
    C   C80   0.539177  0.960955  0.732140  -0.141607
    H   H33   0.430719  0.071207  0.781246  0.113730
    H   H34   0.928793  0.430719  0.781246  0.113725
    H   H35   0.569281  0.928793  0.781246  0.113728
    H   H36   0.071207  0.569281  0.781246  0.113727
    H   H37   0.430719  0.928793  0.218754  0.113732
    H   H38   0.928793  0.569281  0.218754  0.113731
    H   H39   0.569281  0.071207  0.218754  0.113733
    H   H40   0.071207  0.430719  0.218754  0.113732
    H   H41   0.930719  0.571207  0.281246  0.113729
    H   H42   0.428793  0.930719  0.281246  0.113726
    H   H43   0.069281  0.428793  0.281246  0.113728
    H   H44   0.571207  0.069281  0.281246  0.113737
    H   H45   0.930719  0.428793  0.718754  0.113731
    H   H46   0.428793  0.069281  0.718754  0.113727
    H   H47   0.069281  0.571207  0.718754  0.113735
    H   H48   0.571207  0.930719  0.718754  0.113742
    C   C81   0.500000  0.000000  0.713942  0.074112
    C   C82   0.000000  0.500000  0.713942  0.074170
    C   C83   0.500000  0.000000  0.286058  0.074087
    C   C84   0.000000  0.500000  0.286058  0.074127
    C   C85   0.000000  0.500000  0.213942  0.074135
    C   C86   0.500000  0.000000  0.213942  0.074142
    C   C87   0.000000  0.500000  0.786058  0.074052
    C   C88   0.500000  0.000000  0.786058  0.074059
    C   C89   0.718168  0.947655  0.489888  -0.419093
    C   C90   0.052346  0.718168  0.489888  -0.419140
    C   C91   0.281832  0.052346  0.489888  -0.419104
    C   C92   0.947655  0.281832  0.489888  -0.419132
    C   C93   0.718168  0.052346  0.510112  -0.419150
    C   C94   0.052346  0.281832  0.510112  -0.419172
    C   C95   0.281832  0.947655  0.510112  -0.419137
    C   C96   0.947655  0.718168  0.510112  -0.419145
    C   C97   0.218168  0.447655  0.989888  -0.419127
    C   C98   0.552346  0.218168  0.989888  -0.419135
    C   C99   0.781832  0.552346  0.989888  -0.419146
    C   C100  0.447655  0.781832  0.989888  -0.419143
    C   C101  0.218168  0.552346  0.010112  -0.419170
    C   C102  0.552346  0.781832  0.010112  -0.419142
    C   C103  0.781832  0.447655  0.010112  -0.419152
    C   C104  0.447655  0.218168  0.010112  -0.419157
    H   H49   0.693755  0.905870  0.482525  0.195067
    H   H50   0.094130  0.693755  0.482525  0.195083
    H   H51   0.306245  0.094130  0.482525  0.195081
    H   H52   0.905870  0.306245  0.482525  0.195084
    H   H53   0.693755  0.094130  0.517475  0.195088
    H   H54   0.094130  0.306245  0.517475  0.195102
    H   H55   0.306245  0.905870  0.517475  0.195087
    H   H56   0.905870  0.693755  0.517475  0.195088
    H   H57   0.193755  0.405870  0.982525  0.195077
    H   H58   0.594130  0.193755  0.982525  0.195080
    H   H59   0.806245  0.594130  0.982525  0.195086
    H   H60   0.405870  0.806245  0.982525  0.195077
    H   H61   0.193755  0.594130  0.017475  0.195096
    H   H62   0.594130  0.806245  0.017475  0.195087
    H   H63   0.806245  0.405870  0.017475  0.195086
    H   H64   0.405870  0.193755  0.017475  0.195086
    C   C105  0.782230  0.948068  0.488977  0.455948
    C   C106  0.051932  0.782230  0.488977  0.456010
    C   C107  0.217770  0.051932  0.488977  0.455944
    C   C108  0.948068  0.217770  0.488977  0.455969
    C   C109  0.782230  0.051932  0.511023  0.456045
    C   C110  0.051932  0.217770  0.511023  0.456057
    C   C111  0.217770  0.948068  0.511023  0.456032
    C   C112  0.948068  0.782230  0.511023  0.456006
    C   C113  0.282230  0.448068  0.988977  0.455984
    C   C114  0.551932  0.282230  0.988977  0.455994
    C   C115  0.717770  0.551932  0.988977  0.456053
    C   C116  0.448068  0.717770  0.988977  0.456053
    C   C117  0.282230  0.551932  0.011023  0.456071
    C   C118  0.551932  0.717770  0.011023  0.456035
    C   C119  0.717770  0.448068  0.011023  0.456060
    C   C120  0.448068  0.282230  0.011023  0.456083
    C   C121  0.814467  0.000000  0.500000  -0.293437
    C   C122  0.000000  0.814467  0.500000  -0.293420
    C   C123  0.185533  0.000000  0.500000  -0.293401
    C   C124  0.000000  0.185533  0.500000  -0.293437
    C   C125  0.314467  0.500000  0.000000  -0.293495
    C   C126  0.500000  0.314467  0.000000  -0.293513
    C   C127  0.685533  0.500000  0.000000  -0.293552
    C   C128  0.500000  0.685533  0.000000  -0.293533
    C   C129  0.685835  0.000000  0.500000  0.065328
    C   C130  0.000000  0.685835  0.500000  0.065373
    C   C131  0.314165  0.000000  0.500000  0.065308
    C   C132  0.000000  0.314165  0.500000  0.065364
    C   C133  0.185835  0.500000  0.000000  0.065338
    C   C134  0.500000  0.185835  0.000000  0.065320
    C   C135  0.814165  0.500000  0.000000  0.065305
    C   C136  0.500000  0.814165  0.000000  0.065290
    O   O33   0.981607  0.088487  0.471660  -0.462392
    O   O34   0.911513  0.981607  0.471660  -0.462404
    O   O35   0.018393  0.911513  0.471660  -0.462366
    O   O36   0.088487  0.018393  0.471660  -0.462396
    O   O37   0.981607  0.911513  0.528340  -0.462360
    O   O38   0.911513  0.018393  0.528340  -0.462369
    O   O39   0.018393  0.088487  0.528340  -0.462369
    O   O40   0.088487  0.981607  0.528340  -0.462362
    O   O41   0.481607  0.588487  0.971660  -0.462442
    O   O42   0.411513  0.481607  0.971660  -0.462450
    O   O43   0.518393  0.411513  0.971660  -0.462449
    O   O44   0.588487  0.518393  0.971660  -0.462446
    O   O45   0.481607  0.411513  0.028340  -0.462424
    O   O46   0.411513  0.518393  0.028340  -0.462413
    O   O47   0.518393  0.588487  0.028340  -0.462425
    O   O48   0.588487  0.481607  0.028340  -0.462442
    C   C137  0.000000  0.117612  0.500000  0.620531
    C   C138  0.882388  0.000000  0.500000  0.620536
    C   C139  0.000000  0.882388  0.500000  0.620511
    C   C140  0.117612  0.000000  0.500000  0.620494
    C   C141  0.500000  0.617612  0.000000  0.620675
    C   C142  0.382388  0.500000  0.000000  0.620662
    C   C143  0.500000  0.382388  0.000000  0.620677
    C   C144  0.617612  0.500000  0.000000  0.620703
    Cu  Cu9   0.000000  0.000000  0.466324  0.761355
    Cu  Cu10  0.000000  0.000000  0.533676  0.761273
    Cu  Cu11  0.500000  0.500000  0.966324  0.761413
    Cu  Cu12  0.500000  0.500000  0.033676  0.761285
    O   O49   0.813542  0.895091  0.480087  -0.341027
    C   C145  0.809049  0.890648  0.444051  0.329185
    H   H65   0.812716  0.937443  0.432225  -0.059704
    H   H66   0.764118  0.869139  0.436789  -0.034365
    C   C146  0.861213  0.850085  0.430618  -0.217085
    H   H67   0.857908  0.803409  0.442617  0.058994
    H   H68   0.857366  0.845753  0.402063  0.046496
    H   H69   0.906588  0.871138  0.437316  0.055918
    O   O50   0.104909  0.813542  0.480087  -0.341099
    C   C147  0.109352  0.809049  0.444051  0.329365
    H   H70   0.062557  0.812716  0.432225  -0.059796
    H   H71   0.130861  0.764118  0.436789  -0.034403
    C   C148  0.149915  0.861213  0.430618  -0.217077
    H   H72   0.196592  0.857908  0.442617  0.058970
    H   H73   0.154247  0.857366  0.402063  0.046491
    H   H74   0.128863  0.906588  0.437316  0.055900
    O   O51   0.186458  0.104909  0.480087  -0.341030
    C   C149  0.190951  0.109352  0.444051  0.329200
    H   H75   0.187284  0.062557  0.432225  -0.059708
    H   H76   0.235882  0.130861  0.436789  -0.034369
    C   C150  0.138787  0.149915  0.430618  -0.217071
    H   H77   0.142092  0.196592  0.442617  0.058985
    H   H78   0.142634  0.154247  0.402063  0.046492
    H   H79   0.093412  0.128863  0.437316  0.055900
    O   O52   0.895091  0.186458  0.480087  -0.341049
    C   C151  0.890648  0.190951  0.444051  0.329238
    H   H80   0.937443  0.187284  0.432225  -0.059718
    H   H81   0.869139  0.235882  0.436789  -0.034377
    C   C152  0.850085  0.138787  0.430618  -0.217097
    H   H82   0.803409  0.142092  0.442617  0.058990
    H   H83   0.845753  0.142634  0.402063  0.046495
    H   H84   0.871138  0.093412  0.437316  0.055907
    O   O53   0.813542  0.104909  0.519913  -0.341114
    C   C153  0.809049  0.109352  0.555949  0.329344
    H   H85   0.812716  0.062557  0.567775  -0.059793
    H   H86   0.764118  0.130861  0.563211  -0.034401
    C   C154  0.861213  0.149915  0.569382  -0.217062
    H   H87   0.857908  0.196592  0.557383  0.058975
    H   H88   0.857366  0.154247  0.597937  0.046489
    H   H89   0.906588  0.128863  0.562684  0.055903
    O   O54   0.104909  0.186458  0.519913  -0.341127
    C   C155  0.109352  0.190951  0.555949  0.329355
    H   H90   0.062557  0.187284  0.567775  -0.059796
    H   H91   0.130861  0.235882  0.563211  -0.034406
    C   C156  0.149915  0.138787  0.569382  -0.217058
    H   H92   0.196592  0.142092  0.557383  0.058971
    H   H93   0.154247  0.142634  0.597937  0.046486
    H   H94   0.128863  0.093412  0.562684  0.055902
    O   O55   0.186458  0.895091  0.519913  -0.341122
    C   C157  0.190951  0.890648  0.555949  0.329377
    H   H95   0.187284  0.937443  0.567775  -0.059804
    H   H96   0.235882  0.869139  0.563211  -0.034414
    C   C158  0.138787  0.850085  0.569382  -0.217046
    H   H97   0.142092  0.803409  0.557383  0.058969
    H   H98   0.142634  0.845753  0.597937  0.046483
    H   H99   0.093412  0.871138  0.562684  0.055896
    O   O56   0.895091  0.813542  0.519913  -0.341112
    C   C159  0.890648  0.809049  0.555949  0.329367
    H   H100  0.937443  0.812716  0.567775  -0.059797
    H   H101  0.869139  0.764118  0.563211  -0.034407
    C   C160  0.850085  0.861213  0.569382  -0.217076
    H   H102  0.803409  0.857908  0.557383  0.058977
    H   H103  0.845753  0.857366  0.597937  0.046491
    H   H104  0.871138  0.906588  0.562684  0.055905
    O   O57   0.313542  0.395091  0.980087  -0.341036
    C   C161  0.309049  0.390648  0.944051  0.329209
    H   H105  0.312716  0.437443  0.932225  -0.059711
    H   H106  0.264118  0.369139  0.936789  -0.034374
    C   C162  0.361213  0.350085  0.930618  -0.217067
    H   H107  0.357908  0.303409  0.942617  0.058983
    H   H108  0.357366  0.345753  0.902063  0.046490
    H   H109  0.406588  0.371137  0.937316  0.055898
    O   O58   0.604909  0.313542  0.980087  -0.341035
    C   C163  0.609352  0.309049  0.944051  0.329179
    H   H110  0.562557  0.312716  0.932225  -0.059702
    H   H111  0.630861  0.264118  0.936789  -0.034364
    C   C164  0.649915  0.361213  0.930618  -0.217071
    H   H112  0.696592  0.357908  0.942617  0.058985
    H   H113  0.654247  0.357366  0.902063  0.046494
    H   H114  0.628863  0.406588  0.937316  0.055900
    O   O59   0.686458  0.604909  0.980087  -0.341061
    C   C165  0.690951  0.609352  0.944051  0.329191
    H   H115  0.687284  0.562557  0.932225  -0.059708
    H   H116  0.735882  0.630861  0.936789  -0.034368
    C   C166  0.638787  0.649915  0.930618  -0.217065
    H   H117  0.642092  0.696592  0.942617  0.058984
    H   H118  0.642634  0.654247  0.902063  0.046491
    H   H119  0.593412  0.628863  0.937316  0.055897
    O   O60   0.395091  0.686458  0.980087  -0.341066
    C   C167  0.390648  0.690951  0.944051  0.329225
    H   H120  0.437443  0.687284  0.932225  -0.059720
    H   H121  0.369139  0.735882  0.936789  -0.034377
    C   C168  0.350085  0.638787  0.930618  -0.217068
    H   H122  0.303409  0.642092  0.942617  0.058985
    H   H123  0.345753  0.642634  0.902063  0.046490
    H   H124  0.371138  0.593412  0.937316  0.055897
    O   O61   0.313542  0.604909  0.019913  -0.341122
    C   C169  0.309049  0.609352  0.055949  0.329372
    H   H125  0.312716  0.562557  0.067775  -0.059798
    H   H126  0.264118  0.630861  0.063211  -0.034410
    C   C170  0.361213  0.649915  0.069382  -0.217063
    H   H127  0.357908  0.696592  0.057383  0.058970
    H   H128  0.357366  0.654247  0.097937  0.046489
    H   H129  0.406588  0.628863  0.062684  0.055886
    O   O62   0.604909  0.686458  0.019913  -0.341064
    C   C171  0.609352  0.690951  0.055949  0.329215
    H   H130  0.562557  0.687284  0.067775  -0.059714
    H   H131  0.630861  0.735882  0.063211  -0.034374
    C   C172  0.649915  0.638787  0.069382  -0.217083
    H   H132  0.696592  0.642092  0.057383  0.058991
    H   H133  0.654247  0.642634  0.097937  0.046495
    H   H134  0.628863  0.593412  0.062684  0.055900
    O   O63   0.686458  0.395091  0.019913  -0.341079
    C   C173  0.690951  0.390648  0.055949  0.329218
    H   H135  0.687284  0.437443  0.067775  -0.059716
    H   H136  0.735882  0.369139  0.063211  -0.034374
    C   C174  0.638787  0.350085  0.069382  -0.217090
    H   H137  0.642092  0.303409  0.057383  0.058996
    H   H138  0.642634  0.345753  0.097937  0.046496
    H   H139  0.593412  0.371138  0.062684  0.055914
    O   O64   0.395091  0.313542  0.019913  -0.341136
    C   C175  0.390648  0.309049  0.055949  0.329365
    H   H140  0.437443  0.312716  0.067775  -0.059799
    H   H141  0.369139  0.264118  0.063211  -0.034409
    C   C176  0.350085  0.361213  0.069382  -0.217056
    H   H142  0.303409  0.357908  0.057383  0.058974
    H   H143  0.345753  0.357366  0.097937  0.046487
    H   H144  0.371138  0.406588  0.062684  0.055898
