# Generated by REPEAT Assigner based on pymatgen
data_DB0-m2_o1_o2_f0_pcu.sym.18_sqe
_audit_creation_date              2022-05-24
_audit_creation_method            REPEAT_Assigner
_cell_length_a                    10.959527
_cell_length_b                    9.388973
_cell_length_c                    15.140622
_cell_angle_alpha                 90.000000
_cell_angle_beta                  90.006009
_cell_angle_gamma                 90.000000
_cell_volume                      1557.950336
_symmetry_space_group_name_H-M    P1
_symmetry_Int_Tables_number       1
loop_
    _symmetry_equiv_pos_site_id
    _symmetry_equiv_pos_as_xyz
    1  x,y,z
loop_
    _atom_site_type_symbol
    _atom_site_label
    _atom_site_fract_x
    _atom_site_fract_y
    _atom_site_fract_z
    _atom_type_partial_charge
    O   O1   0.323259  0.620987  0.512960  -0.525401
    O   O2   0.673383  0.382324  0.524092  -0.638236
    O   O3   0.676128  0.620108  0.486949  -0.509192
    O   O4   0.324940  0.383371  0.476113  -0.628868
    N   N1   0.501373  0.855433  0.499542  0.059370
    N   N2   0.498708  0.147987  0.500383  0.101063
    C   C1   0.264993  0.501455  0.494718  0.665523
    C   C2   0.733474  0.500320  0.505639  0.648031
    O   O5   0.482032  0.620410  0.372099  -0.574202
    O   O6   0.465869  0.383031  0.626114  -0.472164
    O   O7   0.517580  0.620935  0.627613  -0.587655
    O   O8   0.532335  0.382136  0.373986  -0.429737
    C   C3   0.512024  0.501642  0.330968  0.601151
    C   C4   0.487133  0.502477  0.668865  0.628846
    Cu  Cu1  0.497766  0.642135  0.500152  0.859155
    Cu  Cu2  0.499968  0.361250  0.499994  0.801828
    H   H1   0.380608  0.131834  0.391552  0.114607
    H   H2   0.615379  0.871813  0.610524  0.098956
    H   H3   0.620906  0.132337  0.607104  0.105549
    H   H4   0.392256  0.871605  0.385345  0.135747
    C   C5   0.436134  0.075286  0.438646  -0.054523
    C   C6   0.564950  0.928243  0.560335  -0.077570
    C   C7   0.566667  0.075499  0.559188  -0.021663
    C   C8   0.440178  0.928141  0.436630  -0.100670
    C   C9   0.062310  0.371921  0.496533  -0.118896
    C   C10  0.935919  0.624108  0.511124  -0.100107
    C   C11  0.935390  0.372003  0.494548  -0.094535
    C   C12  0.061297  0.625317  0.501604  -0.001953
    C   C13  0.542848  0.629440  0.095358  -0.147743
    C   C14  0.529798  0.391275  0.905649  -0.093034
    C   C15  0.461306  0.630823  0.904451  -0.158798
    C   C16  0.468616  0.392176  0.093812  -0.090190
    H   H5   0.574290  0.722464  0.060030  0.139628
    H   H6   0.562311  0.298354  0.940515  0.123921
    H   H7   0.432489  0.724888  0.939847  0.139302
    H   H8   0.434302  0.300147  0.058979  0.121655
    C   C17  0.552464  0.624641  0.186627  -0.034657
    C   C18  0.518987  0.383708  0.815259  -0.062656
    C   C19  0.450882  0.626528  0.813195  -0.030965
    C   C20  0.478601  0.384352  0.184170  -0.042690
    C   C21  0.517908  0.502023  0.232847  -0.071030
    C   C22  0.481935  0.502794  0.766808  -0.073996
    C   C23  0.502116  0.512940  0.048417  0.064108
    C   C24  0.499397  0.513036  0.951182  0.081988
    C   C25  0.869800  0.498319  0.504277  -0.001103
    C   C26  0.128018  0.499374  0.496977  -0.018059
    C   C27  0.609097  0.747708  0.230524  0.672176
    O   O9   0.597882  0.866316  0.198733  -0.521794
    O   O10  0.685828  0.728605  0.302746  -0.563547
    H   H9   0.720488  0.823597  0.321813  0.393683
    C   C28  0.549146  0.246071  0.775415  0.706965
    O   O11  0.469407  0.175354  0.740308  -0.472902
    O   O12  0.662660  0.185064  0.791710  -0.613817
    H   H10  0.665824  0.085541  0.766130  0.425656
    C   C29  0.397615  0.752028  0.769613  0.691859
    O   O13  0.413427  0.870067  0.801148  -0.526693
    O   O14  0.319339  0.736560  0.697938  -0.586309
    H   H11  0.288146  0.833286  0.679022  0.411968
    C   C30  0.446150  0.247442  0.223783  0.661225
    O   O15  0.524982  0.174382  0.258078  -0.461142
    O   O16  0.331641  0.189169  0.207300  -0.596001
    H   H12  0.327065  0.088918  0.231561  0.425711
    C   C31  0.124137  0.233824  0.496265  0.801415
    O   O17  0.115969  0.155709  0.432256  -0.564944
    O   O18  0.192860  0.192350  0.569184  -0.573535
    H   H13  0.232134  0.096707  0.557897  0.393672
    C   C32  0.877321  0.760284  0.530731  0.783929
    O   O19  0.855655  0.844511  0.471519  -0.507140
    O   O20  0.857794  0.798896  0.618277  -0.656001
    H   H14  0.827229  0.900301  0.621772  0.477090
    C   C33  0.872783  0.235656  0.480680  0.820216
    O   O21  0.885389  0.138697  0.533441  -0.582346
    O   O22  0.799192  0.216526  0.406659  -0.624745
    H   H15  0.764560  0.116609  0.406037  0.447227
    C   C34  0.118273  0.764163  0.487928  0.650569
    O   O23  0.121266  0.851744  0.547329  -0.473248
    O   O24  0.160731  0.799491  0.404238  -0.613240
    H   H16  0.185882  0.902863  0.402763  0.443906
