# Generated by REPEAT Assigner based on pymatgen
data_DB0-m2_o1_o3_f0_nbo.sym.23
_audit_creation_date              2022-05-24
_audit_creation_method            REPEAT_Assigner
_cell_length_a                    21.489395
_cell_length_b                    21.489396
_cell_length_c                    38.720162
_cell_angle_alpha                 90.000000
_cell_angle_beta                  90.000000
_cell_angle_gamma                 90.000000
_cell_volume                      17880.743087
_symmetry_space_group_name_H-M    P1
_symmetry_Int_Tables_number       1
loop_
    _symmetry_equiv_pos_site_id
    _symmetry_equiv_pos_as_xyz
    1  x,y,z
loop_
    _atom_site_type_symbol
    _atom_site_label
    _atom_site_fract_x
    _atom_site_fract_y
    _atom_site_fract_z
    _atom_type_partial_charge
    O   O1    0.588846  0.051555  0.490855  -0.599829
    O   O2    0.948445  0.588846  0.490854  -0.599794
    O   O3    0.411154  0.948445  0.490855  -0.599791
    O   O4    0.051555  0.411154  0.490854  -0.599832
    O   O5    0.588846  0.948445  0.509146  -0.599816
    O   O6    0.948445  0.411154  0.509146  -0.599797
    O   O7    0.411154  0.051555  0.509146  -0.599841
    O   O8    0.051555  0.588846  0.509146  -0.599830
    O   O9    0.088846  0.551555  0.990854  -0.599817
    O   O10   0.448445  0.088846  0.990854  -0.599818
    O   O11   0.911154  0.448445  0.990854  -0.599796
    O   O12   0.551555  0.911154  0.990854  -0.599830
    O   O13   0.088846  0.448445  0.009146  -0.599814
    O   O14   0.448445  0.911154  0.009146  -0.599794
    O   O15   0.911154  0.551555  0.009146  -0.599812
    O   O16   0.551555  0.088846  0.009146  -0.599826
    C   C1    0.617847  0.000000  0.500000  0.669787
    C   C2    0.000000  0.617847  0.500000  0.669843
    C   C3    0.382153  0.000000  0.500000  0.669796
    C   C4    0.000000  0.382153  0.500000  0.669850
    C   C5    0.117847  0.500000  0.000000  0.669763
    C   C6    0.500000  0.117847  0.000000  0.669782
    C   C7    0.882153  0.500000  0.000000  0.669782
    C   C8    0.500000  0.882153  0.000000  0.669802
    O   O17   0.516685  0.051335  0.549388  -0.610705
    O   O18   0.948665  0.516685  0.549388  -0.610742
    O   O19   0.483315  0.948665  0.549388  -0.610708
    O   O20   0.051335  0.483315  0.549388  -0.610733
    O   O21   0.516685  0.948665  0.450612  -0.610711
    O   O22   0.948665  0.483315  0.450612  -0.610738
    O   O23   0.483315  0.051335  0.450612  -0.610719
    O   O24   0.051335  0.516685  0.450612  -0.610728
    O   O25   0.016685  0.551335  0.049388  -0.610695
    O   O26   0.448665  0.016685  0.049388  -0.610707
    O   O27   0.983315  0.448665  0.049388  -0.610711
    O   O28   0.551335  0.983315  0.049388  -0.610710
    O   O29   0.016685  0.448665  0.950612  -0.610713
    O   O30   0.448665  0.983315  0.950612  -0.610714
    O   O31   0.983315  0.551335  0.950612  -0.610702
    O   O32   0.551335  0.016685  0.950612  -0.610710
    C   C9    0.500000  0.000000  0.565777  0.942761
    C   C10   0.000000  0.500000  0.565777  0.942835
    C   C11   0.500000  0.000000  0.434223  0.942776
    C   C12   0.000000  0.500000  0.434223  0.942825
    C   C13   0.000000  0.500000  0.065777  0.942743
    C   C14   0.500000  0.000000  0.065777  0.942755
    C   C15   0.000000  0.500000  0.934223  0.942776
    C   C16   0.500000  0.000000  0.934223  0.942725
    Cu  Cu1   0.500000  0.060885  0.500000  0.934028
    Cu  Cu2   0.939115  0.500000  0.500000  0.934016
    Cu  Cu3   0.500000  0.939115  0.500000  0.934009
    Cu  Cu4   0.060885  0.500000  0.500000  0.934023
    Cu  Cu5   0.000000  0.560885  0.000000  0.934017
    Cu  Cu6   0.439115  0.000000  0.000000  0.934047
    Cu  Cu7   0.000000  0.439115  0.000000  0.933993
    Cu  Cu8   0.560885  0.000000  0.000000  0.934042
    C   C17   0.554803  0.989674  0.877831  0.597035
    C   C18   0.010326  0.554803  0.877831  0.597038
    C   C19   0.445197  0.010326  0.877831  0.597037
    C   C20   0.989674  0.445197  0.877831  0.597083
    C   C21   0.554803  0.010326  0.122169  0.597054
    C   C22   0.010326  0.445197  0.122169  0.597030
    C   C23   0.445197  0.989674  0.122169  0.597099
    C   C24   0.989674  0.554803  0.122169  0.597028
    C   C25   0.054803  0.489674  0.377831  0.597048
    C   C26   0.510326  0.054803  0.377831  0.597058
    C   C27   0.945197  0.510326  0.377831  0.597103
    C   C28   0.489674  0.945197  0.377831  0.597093
    C   C29   0.054803  0.510326  0.622169  0.597055
    C   C30   0.510326  0.945197  0.622169  0.597050
    C   C31   0.945197  0.489674  0.622169  0.597091
    C   C32   0.489674  0.054803  0.622169  0.597050
    C   C33   0.554610  0.990770  0.842131  -0.524470
    C   C34   0.009230  0.554610  0.842131  -0.524460
    C   C35   0.445390  0.009230  0.842131  -0.524464
    C   C36   0.990770  0.445390  0.842131  -0.524480
    C   C37   0.554610  0.009230  0.157869  -0.524475
    C   C38   0.009230  0.445390  0.157869  -0.524447
    C   C39   0.445390  0.990770  0.157869  -0.524491
    C   C40   0.990770  0.554610  0.157869  -0.524454
    C   C41   0.054610  0.490770  0.342131  -0.524461
    C   C42   0.509230  0.054610  0.342131  -0.524468
    C   C43   0.945390  0.509230  0.342131  -0.524486
    C   C44   0.490770  0.945390  0.342131  -0.524478
    C   C45   0.054610  0.509230  0.657869  -0.524464
    C   C46   0.509230  0.945390  0.657869  -0.524449
    C   C47   0.945390  0.490770  0.657869  -0.524477
    C   C48   0.490770  0.054610  0.657869  -0.524454
    H   H1    0.597780  0.984726  0.828267  0.163431
    H   H2    0.015274  0.597780  0.828267  0.163428
    H   H3    0.402220  0.015274  0.828267  0.163428
    H   H4    0.984726  0.402220  0.828267  0.163427
    H   H5    0.597780  0.015274  0.171733  0.163432
    H   H6    0.015274  0.402220  0.171733  0.163422
    H   H7    0.402220  0.984726  0.171733  0.163427
    H   H8    0.984726  0.597780  0.171733  0.163427
    H   H9    0.097780  0.484726  0.328267  0.163426
    H   H10   0.515274  0.097780  0.328267  0.163427
    H   H11   0.902220  0.515274  0.328267  0.163429
    H   H12   0.484726  0.902220  0.328267  0.163427
    H   H13   0.097780  0.515274  0.671733  0.163426
    H   H14   0.515274  0.902220  0.671733  0.163421
    H   H15   0.902220  0.484726  0.671733  0.163426
    H   H16   0.484726  0.097780  0.671733  0.163422
    C   C49   0.500000  0.000000  0.824051  0.258026
    C   C50   0.000000  0.500000  0.824051  0.258016
    C   C51   0.500000  0.000000  0.175949  0.258028
    C   C52   0.000000  0.500000  0.175949  0.258012
    C   C53   0.000000  0.500000  0.324051  0.258022
    C   C54   0.500000  0.000000  0.324051  0.258011
    C   C55   0.000000  0.500000  0.675949  0.258020
    C   C56   0.500000  0.000000  0.675949  0.258006
    C   C57   0.500000  0.000000  0.896069  -0.603247
    C   C58   0.000000  0.500000  0.896069  -0.603292
    C   C59   0.500000  0.000000  0.103931  -0.603300
    C   C60   0.000000  0.500000  0.103932  -0.603247
    C   C61   0.000000  0.500000  0.396069  -0.603332
    C   C62   0.500000  0.000000  0.396069  -0.603306
    C   C63   0.000000  0.500000  0.603931  -0.603335
    C   C64   0.500000  0.000000  0.603932  -0.603281
    C   C65   0.461021  0.039372  0.767795  -0.146313
    C   C66   0.960628  0.461021  0.767795  -0.146318
    C   C67   0.538979  0.960628  0.767795  -0.146304
    C   C68   0.039372  0.538979  0.767795  -0.146321
    C   C69   0.461021  0.960628  0.232205  -0.146320
    C   C70   0.960628  0.538979  0.232205  -0.146308
    C   C71   0.538979  0.039372  0.232205  -0.146322
    C   C72   0.039372  0.461021  0.232205  -0.146314
    C   C73   0.961021  0.539372  0.267795  -0.146329
    C   C74   0.460628  0.961021  0.267795  -0.146326
    C   C75   0.038979  0.460628  0.267795  -0.146321
    C   C76   0.539372  0.038979  0.267795  -0.146323
    C   C77   0.961021  0.460628  0.732205  -0.146328
    C   C78   0.460628  0.038979  0.732205  -0.146316
    C   C79   0.038979  0.539372  0.732205  -0.146326
    C   C80   0.539372  0.961021  0.732205  -0.146323
    H   H17   0.430884  0.071724  0.781052  0.105116
    H   H18   0.928276  0.430884  0.781052  0.105123
    H   H19   0.569116  0.928276  0.781052  0.105114
    H   H20   0.071724  0.569116  0.781052  0.105119
    H   H21   0.430884  0.928276  0.218948  0.105124
    H   H22   0.928276  0.569116  0.218948  0.105115
    H   H23   0.569116  0.071724  0.218948  0.105118
    H   H24   0.071724  0.430884  0.218948  0.105117
    H   H25   0.930884  0.571724  0.281052  0.105126
    H   H26   0.428276  0.930884  0.281052  0.105124
    H   H27   0.069116  0.428276  0.281052  0.105119
    H   H28   0.571724  0.069116  0.281052  0.105120
    H   H29   0.930884  0.428276  0.718948  0.105125
    H   H30   0.428276  0.069116  0.718948  0.105117
    H   H31   0.069116  0.571724  0.718948  0.105122
    H   H32   0.571724  0.930884  0.718948  0.105119
    C   C81   0.500000  0.000000  0.714020  0.101900
    C   C82   0.000000  0.500000  0.714020  0.101908
    C   C83   0.500000  0.000000  0.285980  0.101913
    C   C84   0.000000  0.500000  0.285980  0.101903
    C   C85   0.000000  0.500000  0.214020  0.101886
    C   C86   0.500000  0.000000  0.214020  0.101899
    C   C87   0.000000  0.500000  0.785980  0.101901
    C   C88   0.500000  0.000000  0.785980  0.101881
    C   C89   0.717564  0.957644  0.480018  -0.509585
    C   C90   0.042353  0.717564  0.480017  -0.509392
    C   C91   0.282436  0.042356  0.480018  -0.509623
    C   C92   0.957647  0.282436  0.480017  -0.509380
    C   C93   0.717564  0.042356  0.519982  -0.509588
    C   C94   0.042353  0.282436  0.519983  -0.509376
    C   C95   0.282436  0.957644  0.519982  -0.509647
    C   C96   0.957647  0.717564  0.519983  -0.509378
    C   C97   0.217564  0.457645  0.980018  -0.509761
    C   C98   0.542355  0.217564  0.980017  -0.509692
    C   C99   0.782436  0.542355  0.980018  -0.509770
    C   C100  0.457645  0.782436  0.980017  -0.509694
    C   C101  0.217564  0.542355  0.019982  -0.509763
    C   C102  0.542355  0.782436  0.019983  -0.509686
    C   C103  0.782436  0.457645  0.019982  -0.509769
    C   C104  0.457645  0.217564  0.019983  -0.509679
    H   H33   0.691645  0.924981  0.464398  0.173142
    H   H34   0.075014  0.691645  0.464395  0.173092
    H   H35   0.308355  0.075019  0.464398  0.173153
    H   H36   0.924986  0.308355  0.464395  0.173087
    H   H37   0.691645  0.075019  0.535602  0.173149
    H   H38   0.075014  0.308355  0.535605  0.173090
    H   H39   0.308355  0.924981  0.535602  0.173146
    H   H40   0.924986  0.691645  0.535605  0.173081
    H   H41   0.191645  0.424983  0.964397  0.173151
    H   H42   0.575017  0.191645  0.964397  0.173153
    H   H43   0.808355  0.575017  0.964397  0.173158
    H   H44   0.424983  0.808355  0.964397  0.173149
    H   H45   0.191645  0.575017  0.035603  0.173158
    H   H46   0.575017  0.808355  0.035603  0.173154
    H   H47   0.808355  0.424983  0.035603  0.173155
    H   H48   0.424983  0.191645  0.035603  0.173149
    C   C105  0.781836  0.958484  0.479355  0.545400
    C   C106  0.041514  0.781836  0.479353  0.545523
    C   C107  0.218164  0.041516  0.479355  0.545447
    C   C108  0.958486  0.218164  0.479353  0.545484
    C   C109  0.781836  0.041516  0.520645  0.545399
    C   C110  0.041514  0.218164  0.520647  0.545491
    C   C111  0.218164  0.958484  0.520645  0.545521
    C   C112  0.958486  0.781836  0.520647  0.545493
    C   C113  0.281836  0.458485  0.979354  0.545661
    C   C114  0.541515  0.281836  0.979354  0.545601
    C   C115  0.718164  0.541515  0.979354  0.545684
    C   C116  0.458485  0.718164  0.979354  0.545619
    C   C117  0.281836  0.541515  0.020646  0.545655
    C   C118  0.541515  0.718164  0.020646  0.545599
    C   C119  0.718164  0.458485  0.020646  0.545675
    C   C120  0.458485  0.281836  0.020646  0.545576
    C   C121  0.813914  0.000000  0.500000  -0.531151
    C   C122  0.000000  0.813914  0.500000  -0.531464
    C   C123  0.186086  0.000000  0.500000  -0.531236
    C   C124  0.000000  0.186086  0.500000  -0.531440
    C   C125  0.313914  0.500000  0.000000  -0.531511
    C   C126  0.500000  0.313914  0.000000  -0.531449
    C   C127  0.686086  0.500000  0.000000  -0.531530
    C   C128  0.500000  0.686086  0.000000  -0.531469
    C   C129  0.685636  0.000000  0.500000  0.218111
    C   C130  0.000000  0.685636  0.500000  0.217831
    C   C131  0.314364  0.000000  0.500000  0.218137
    C   C132  0.000000  0.314364  0.500000  0.217825
    C   C133  0.185636  0.500000  0.000000  0.218276
    C   C134  0.500000  0.185636  0.000000  0.218174
    C   C135  0.814364  0.500000  0.000000  0.218264
    C   C136  0.500000  0.814364  0.000000  0.218160
    O   O33   0.016145  0.089147  0.471363  -0.692383
    O   O34   0.910853  0.016145  0.471363  -0.692304
    O   O35   0.983855  0.910853  0.471363  -0.692376
    O   O36   0.089147  0.983855  0.471363  -0.692312
    O   O37   0.016145  0.910853  0.528637  -0.692369
    O   O38   0.910853  0.983855  0.528637  -0.692311
    O   O39   0.983855  0.089147  0.528637  -0.692384
    O   O40   0.089147  0.016145  0.528637  -0.692314
    O   O41   0.516145  0.589147  0.971363  -0.692400
    O   O42   0.410853  0.516145  0.971363  -0.692411
    O   O43   0.483855  0.410853  0.971363  -0.692407
    O   O44   0.589147  0.483855  0.971363  -0.692402
    O   O45   0.516145  0.410853  0.028637  -0.692407
    O   O46   0.410853  0.483855  0.028637  -0.692409
    O   O47   0.483855  0.589147  0.028637  -0.692397
    O   O48   0.589147  0.516145  0.028637  -0.692401
    C   C137  0.000000  0.118187  0.500000  1.098256
    C   C138  0.881813  0.000000  0.500000  1.097886
    C   C139  0.000000  0.881813  0.500000  1.098272
    C   C140  0.118187  0.000000  0.500000  1.097917
    C   C141  0.500000  0.618187  0.000000  1.098185
    C   C142  0.381813  0.500000  0.000000  1.098216
    C   C143  0.500000  0.381813  0.000000  1.098197
    C   C144  0.618187  0.500000  0.000000  1.098203
    Cu  Cu9   0.000000  0.000000  0.466186  0.989333
    Cu  Cu10  0.000000  0.000000  0.533814  0.989286
    Cu  Cu11  0.500000  0.500000  0.966186  0.989380
    Cu  Cu12  0.500000  0.500000  0.033814  0.989375
    N   N1    0.611362  0.975840  0.895583  -0.710426
    H   H49   0.647487  0.972288  0.877704  0.296970
    H   H50   0.606098  0.932289  0.907197  0.272754
    N   N2    0.024160  0.611362  0.895583  -0.710416
    H   H51   0.027713  0.647487  0.877704  0.296966
    H   H52   0.067711  0.606098  0.907197  0.272749
    N   N3    0.388638  0.024160  0.895583  -0.710410
    H   H53   0.352513  0.027713  0.877704  0.296962
    H   H54   0.393902  0.067711  0.907197  0.272748
    N   N4    0.975840  0.388638  0.895583  -0.710413
    H   H55   0.972287  0.352513  0.877704  0.296968
    H   H56   0.932289  0.393902  0.907197  0.272718
    N   N5    0.611362  0.024160  0.104417  -0.710425
    H   H57   0.647487  0.027713  0.122296  0.296969
    H   H58   0.606098  0.067711  0.092803  0.272750
    N   N6    0.024160  0.388638  0.104417  -0.710411
    H   H59   0.027713  0.352513  0.122296  0.296964
    H   H60   0.067711  0.393902  0.092803  0.272749
    N   N7    0.388638  0.975840  0.104417  -0.710424
    H   H61   0.352513  0.972288  0.122296  0.296973
    H   H62   0.393902  0.932289  0.092803  0.272719
    N   N8    0.975840  0.611362  0.104417  -0.710421
    H   H63   0.972287  0.647487  0.122296  0.296968
    H   H64   0.932289  0.606098  0.092803  0.272752
    N   N9    0.111362  0.475840  0.395583  -0.710414
    H   H65   0.147487  0.472288  0.377704  0.296964
    H   H66   0.106098  0.432289  0.407197  0.272753
    N   N10   0.524160  0.111362  0.395583  -0.710415
    H   H67   0.527713  0.147487  0.377704  0.296963
    H   H68   0.567711  0.106098  0.407197  0.272750
    N   N11   0.888638  0.524160  0.395583  -0.710406
    H   H69   0.852513  0.527713  0.377704  0.296962
    H   H70   0.893902  0.567711  0.407197  0.272718
    N   N12   0.475840  0.888638  0.395583  -0.710410
    H   H71   0.472287  0.852513  0.377704  0.296965
    H   H72   0.432289  0.893902  0.407197  0.272716
    N   N13   0.111362  0.524160  0.604417  -0.710412
    H   H73   0.147487  0.527713  0.622296  0.296961
    H   H74   0.106098  0.567711  0.592803  0.272752
    N   N14   0.524160  0.888638  0.604417  -0.710415
    H   H75   0.527713  0.852513  0.622296  0.296961
    H   H76   0.567711  0.893902  0.592803  0.272753
    N   N15   0.888638  0.475840  0.604417  -0.710403
    H   H77   0.852513  0.472288  0.622296  0.296963
    H   H78   0.893902  0.432289  0.592803  0.272719
    N   N16   0.475840  0.111362  0.604417  -0.710425
    H   H79   0.472287  0.147487  0.622296  0.296967
    H   H80   0.432289  0.106098  0.592803  0.272755
    N   N17   0.815194  0.915918  0.457991  -0.710270
    H   H81   0.783314  0.889924  0.443685  0.314001
    H   H82   0.839108  0.885201  0.474104  0.244696
    N   N18   0.084076  0.815194  0.457988  -0.710444
    H   H83   0.110068  0.783314  0.443681  0.314056
    H   H84   0.114796  0.839108  0.474099  0.244710
    N   N19   0.184806  0.084082  0.457991  -0.710280
    H   H85   0.216686  0.110076  0.443685  0.314002
    H   H86   0.160892  0.114799  0.474104  0.244693
    N   N20   0.915924  0.184806  0.457988  -0.710393
    H   H87   0.889932  0.216686  0.443681  0.314051
    H   H88   0.885204  0.160892  0.474099  0.244660
    N   N21   0.815194  0.084082  0.542009  -0.710268
    H   H89   0.783314  0.110076  0.556315  0.314001
    H   H90   0.839108  0.114799  0.525896  0.244691
    N   N22   0.084076  0.184806  0.542012  -0.710405
    H   H91   0.110068  0.216686  0.556320  0.314055
    H   H92   0.114796  0.160892  0.525901  0.244658
    N   N23   0.184806  0.915918  0.542009  -0.710317
    H   H93   0.216686  0.889924  0.556315  0.314038
    H   H94   0.160892  0.885201  0.525896  0.244629
    N   N24   0.915924  0.815194  0.542012  -0.710399
    H   H95   0.889932  0.783314  0.556320  0.314054
    H   H96   0.885204  0.839108  0.525901  0.244659
    N   N25   0.315194  0.415921  0.957990  -0.710337
    H   H97   0.283314  0.389928  0.943683  0.314031
    H   H98   0.339108  0.385202  0.974102  0.244654
    N   N26   0.584079  0.315194  0.957990  -0.710334
    H   H99   0.610072  0.283314  0.943683  0.314034
    H   H100  0.614798  0.339108  0.974101  0.244659
    N   N27   0.684806  0.584079  0.957990  -0.710351
    H   H101  0.716686  0.610072  0.943683  0.314034
    H   H102  0.660892  0.614798  0.974102  0.244657
    N   N28   0.415921  0.684806  0.957990  -0.710335
    H   H103  0.389928  0.716686  0.943683  0.314031
    H   H104  0.385202  0.660892  0.974101  0.244660
    N   N29   0.315194  0.584079  0.042010  -0.710335
    H   H105  0.283314  0.610072  0.056317  0.314033
    H   H106  0.339108  0.614798  0.025898  0.244651
    N   N30   0.584079  0.684806  0.042011  -0.710313
    H   H107  0.610072  0.716686  0.056317  0.314031
    H   H108  0.614798  0.660892  0.025899  0.244640
    N   N31   0.684806  0.415921  0.042010  -0.710339
    H   H109  0.716686  0.389928  0.056317  0.314031
    H   H110  0.660892  0.385202  0.025898  0.244653
    N   N32   0.415921  0.315194  0.042011  -0.710302
    H   H111  0.389928  0.283314  0.056317  0.314028
    H   H112  0.385202  0.339108  0.025899  0.244639
