# Generated by REPEAT Assigner based on pymatgen
data_DB0-m2_o1_o3_f0_nbo.sym.31_sqe
_audit_creation_date              2022-05-24
_audit_creation_method            REPEAT_Assigner
_cell_length_a                    21.451160
_cell_length_b                    21.451160
_cell_length_c                    38.532973
_cell_angle_alpha                 90.000000
_cell_angle_beta                  90.000000
_cell_angle_gamma                 90.000000
_cell_volume                      17731.034284
_symmetry_space_group_name_H-M    P1
_symmetry_Int_Tables_number       1
loop_
    _symmetry_equiv_pos_site_id
    _symmetry_equiv_pos_as_xyz
    1  x,y,z
loop_
    _atom_site_type_symbol
    _atom_site_label
    _atom_site_fract_x
    _atom_site_fract_y
    _atom_site_fract_z
    _atom_type_partial_charge
    O   O1    0.589081  0.051792  0.491084  -0.510305
    O   O2    0.948211  0.589081  0.491083  -0.510308
    O   O3    0.410922  0.948211  0.491083  -0.510311
    O   O4    0.051792  0.410922  0.491083  -0.510294
    O   O5    0.589081  0.948211  0.508916  -0.510335
    O   O6    0.948211  0.410922  0.508917  -0.510296
    O   O7    0.410922  0.051792  0.508916  -0.510284
    O   O8    0.051792  0.589081  0.508916  -0.510319
    O   O9    0.089082  0.551792  0.991084  -0.510347
    O   O10   0.448211  0.089081  0.991083  -0.510347
    O   O11   0.910922  0.448211  0.991083  -0.510311
    O   O12   0.551792  0.910922  0.991083  -0.510333
    O   O13   0.089081  0.448211  0.008916  -0.510331
    O   O14   0.448211  0.910922  0.008917  -0.510356
    O   O15   0.910922  0.551792  0.008916  -0.510330
    O   O16   0.551792  0.089081  0.008916  -0.510341
    C   C1    0.618096  0.000002  0.500000  0.506325
    C   C2    0.000002  0.618096  0.499999  0.506295
    C   C3    0.381907  0.000002  0.499999  0.506186
    C   C4    0.000002  0.381907  0.500000  0.506180
    C   C5    0.118096  0.500002  0.000000  0.506354
    C   C6    0.500002  0.118096  0.999999  0.506298
    C   C7    0.881907  0.500002  0.999999  0.506292
    C   C8    0.500002  0.881907  0.000000  0.506315
    O   O17   0.516205  0.051717  0.549688  -0.620505
    O   O18   0.948286  0.516205  0.549688  -0.620490
    O   O19   0.483798  0.948285  0.549688  -0.620495
    O   O20   0.051719  0.483799  0.549688  -0.620486
    O   O21   0.516206  0.948286  0.450311  -0.620483
    O   O22   0.948285  0.483798  0.450312  -0.620480
    O   O23   0.483799  0.051718  0.450311  -0.620463
    O   O24   0.051717  0.516205  0.450311  -0.620512
    O   O25   0.016204  0.551717  0.049688  -0.620515
    O   O26   0.448286  0.016205  0.049688  -0.620519
    O   O27   0.983798  0.448285  0.049688  -0.620493
    O   O28   0.551719  0.983799  0.049688  -0.620491
    O   O29   0.016206  0.448286  0.950311  -0.620466
    O   O30   0.448285  0.983798  0.950312  -0.620502
    O   O31   0.983799  0.551718  0.950311  -0.620489
    O   O32   0.551717  0.016204  0.950311  -0.620480
    C   C9    0.500001  0.000001  0.565923  0.906553
    C   C10   0.000003  0.500002  0.565923  0.906396
    C   C11   0.500002  0.000002  0.434077  0.906375
    C   C12   0.000001  0.500001  0.434077  0.906562
    C   C13   0.000001  0.500001  0.065923  0.906510
    C   C14   0.500003  0.000002  0.065923  0.906605
    C   C15   0.000002  0.500002  0.934077  0.906339
    C   C16   0.500001  0.000001  0.934077  0.906486
    Cu  Cu1   0.500002  0.061144  0.500000  0.902583
    Cu  Cu2   0.938859  0.500002  0.500000  0.902533
    Cu  Cu3   0.500002  0.938859  0.499999  0.902483
    Cu  Cu4   0.061144  0.500002  0.499999  0.902543
    Cu  Cu5   0.000002  0.561144  0.000000  0.902549
    Cu  Cu6   0.438859  0.000002  0.000000  0.902497
    Cu  Cu7   0.000002  0.438859  0.999999  0.902565
    Cu  Cu8   0.561144  0.000002  0.999999  0.902618
    C   C17   0.501468  0.944016  0.877894  0.300821
    C   C18   0.055988  0.501470  0.877893  0.300896
    C   C19   0.498533  0.055986  0.877893  0.300932
    C   C20   0.944018  0.498536  0.877893  0.300825
    C   C21   0.501471  0.055987  0.122106  0.300678
    C   C22   0.055986  0.498533  0.122106  0.300920
    C   C23   0.498536  0.944017  0.122106  0.301210
    C   C24   0.944016  0.501467  0.122106  0.300910
    C   C25   0.001469  0.444015  0.377894  0.300701
    C   C26   0.555987  0.001472  0.377894  0.300415
    C   C27   0.998531  0.555985  0.377894  0.300769
    C   C28   0.444017  0.998534  0.377894  0.300065
    C   C29   0.001473  0.555987  0.622106  0.300365
    C   C30   0.555986  0.998532  0.622106  0.300723
    C   C31   0.998534  0.444017  0.622106  0.300006
    C   C32   0.444016  0.001469  0.622106  0.300686
    C   C33   0.501607  0.944514  0.842067  -0.330709
    C   C34   0.055489  0.501609  0.842067  -0.330780
    C   C35   0.498394  0.055487  0.842067  -0.330810
    C   C36   0.944517  0.498398  0.842067  -0.331082
    C   C37   0.501610  0.055488  0.157932  -0.330238
    C   C38   0.055487  0.498395  0.157932  -0.330955
    C   C39   0.498398  0.944516  0.157932  -0.330999
    C   C40   0.944514  0.501606  0.157932  -0.330938
    C   C41   0.001607  0.444514  0.342068  -0.330480
    C   C42   0.555489  0.001610  0.342068  -0.330118
    C   C43   0.998393  0.555487  0.342068  -0.330411
    C   C44   0.444516  0.998396  0.342067  -0.330400
    C   C45   0.001612  0.555489  0.657932  -0.330040
    C   C46   0.555487  0.998394  0.657932  -0.330318
    C   C47   0.998397  0.444516  0.657932  -0.330357
    C   C48   0.444514  0.001607  0.657932  -0.330406
    H   H1    0.502151  0.900937  0.828019  0.140814
    H   H2    0.099066  0.502154  0.828019  0.140806
    H   H3    0.497849  0.099064  0.828019  0.140844
    H   H4    0.900940  0.497853  0.828018  0.140907
    H   H5    0.502155  0.099065  0.171981  0.140664
    H   H6    0.099064  0.497850  0.171981  0.140877
    H   H7    0.497853  0.900939  0.171981  0.140897
    H   H8    0.900937  0.502150  0.171981  0.140879
    H   H9    0.002153  0.400937  0.328019  0.140777
    H   H10   0.599066  0.002155  0.328019  0.140672
    H   H11   0.997847  0.599064  0.328019  0.140741
    H   H12   0.400939  0.997851  0.328019  0.140810
    H   H13   0.002157  0.599066  0.671980  0.140633
    H   H14   0.599064  0.997848  0.671981  0.140706
    H   H15   0.997851  0.400939  0.671981  0.140800
    H   H16   0.400937  0.002153  0.671980  0.140761
    C   C49   0.500000  0.000001  0.824055  0.125476
    C   C50   0.000003  0.500004  0.824054  0.125736
    C   C51   0.500004  0.000002  0.175945  0.125357
    C   C52   0.000000  0.500000  0.175945  0.125849
    C   C53   0.000000  0.500000  0.324055  0.125043
    C   C54   0.500003  0.000003  0.324055  0.125151
    C   C55   0.000004  0.500002  0.675945  0.125099
    C   C56   0.500001  0.000001  0.675945  0.124918
    C   C57   0.500000  0.000001  0.896075  -0.329321
    C   C58   0.000002  0.500003  0.896074  -0.329259
    C   C59   0.500003  0.000002  0.103925  -0.329487
    C   C60   0.000001  0.500000  0.103925  -0.329366
    C   C61   0.000000  0.500001  0.396075  -0.329259
    C   C62   0.500002  0.000003  0.396075  -0.328803
    C   C63   0.000003  0.500002  0.603925  -0.328753
    C   C64   0.500001  0.000000  0.603925  -0.329224
    C   C65   0.460839  0.039452  0.767881  -0.152444
    C   C66   0.960552  0.460842  0.767881  -0.152263
    C   C67   0.539162  0.960549  0.767882  -0.152243
    C   C68   0.039455  0.539165  0.767881  -0.152072
    C   C69   0.460842  0.960551  0.232118  -0.152298
    C   C70   0.960549  0.539162  0.232118  -0.152432
    C   C71   0.539165  0.039454  0.232118  -0.152047
    C   C72   0.039452  0.460839  0.232118  -0.152413
    C   C73   0.960839  0.539452  0.267882  -0.152111
    C   C74   0.460551  0.960841  0.267882  -0.152384
    C   C75   0.039162  0.460549  0.267882  -0.152143
    C   C76   0.539455  0.039164  0.267882  -0.152193
    C   C77   0.960842  0.460551  0.732118  -0.152379
    C   C78   0.460549  0.039162  0.732118  -0.152190
    C   C79   0.039165  0.539454  0.732118  -0.152147
    C   C80   0.539452  0.960839  0.732118  -0.152196
    H   H17   0.429198  0.070071  0.781507  0.111366
    H   H18   0.929933  0.429200  0.781507  0.111355
    H   H19   0.570804  0.929931  0.781507  0.111280
    H   H20   0.070073  0.570806  0.781507  0.111238
    H   H21   0.429200  0.929933  0.218492  0.111373
    H   H22   0.929931  0.570803  0.218492  0.111354
    H   H23   0.570807  0.070072  0.218492  0.111223
    H   H24   0.070070  0.429197  0.218492  0.111350
    H   H25   0.929197  0.570070  0.281507  0.111274
    H   H26   0.429933  0.929200  0.281507  0.111364
    H   H27   0.070804  0.429931  0.281507  0.111286
    H   H28   0.570073  0.070806  0.281507  0.111246
    H   H29   0.929200  0.429933  0.718492  0.111353
    H   H30   0.429931  0.070804  0.718492  0.111293
    H   H31   0.070807  0.570072  0.718492  0.111228
    H   H32   0.570070  0.929197  0.718492  0.111267
    C   C81   0.500001  0.000001  0.714012  0.110553
    C   C82   0.000004  0.500003  0.714012  0.110371
    C   C83   0.500003  0.000003  0.285987  0.110370
    C   C84   0.000000  0.500000  0.285987  0.110477
    C   C85   0.000000  0.500000  0.214012  0.110255
    C   C86   0.500004  0.000002  0.214012  0.110245
    C   C87   0.000003  0.500003  0.785987  0.110163
    C   C88   0.500000  0.000001  0.785987  0.110409
    C   C89   0.718064  0.949407  0.487056  -0.064700
    C   C90   0.050597  0.718063  0.487056  -0.064663
    C   C91   0.281940  0.050596  0.487056  -0.064720
    C   C92   0.949407  0.281940  0.487057  -0.064689
    C   C93   0.718064  0.050596  0.512944  -0.064650
    C   C94   0.050597  0.281940  0.512943  -0.064729
    C   C95   0.281940  0.949407  0.512943  -0.064709
    C   C96   0.949407  0.718063  0.512943  -0.064671
    C   C97   0.218063  0.449408  0.987055  -0.064710
    C   C98   0.550596  0.218063  0.987055  -0.064700
    C   C99   0.781940  0.550596  0.987055  -0.064766
    C   C100  0.449407  0.781940  0.987056  -0.064742
    C   C101  0.218064  0.550595  0.012945  -0.064710
    C   C102  0.550596  0.781940  0.012944  -0.064694
    C   C103  0.781940  0.449408  0.012944  -0.064708
    C   C104  0.449408  0.218063  0.012944  -0.064710
    H   H33   0.693069  0.909823  0.476690  0.082213
    H   H34   0.090181  0.693069  0.476690  0.082206
    H   H35   0.306934  0.090181  0.476691  0.082210
    H   H36   0.909822  0.306934  0.476692  0.082213
    H   H37   0.693069  0.090180  0.523309  0.082195
    H   H38   0.090181  0.306934  0.523308  0.082219
    H   H39   0.306934  0.909823  0.523308  0.082213
    H   H40   0.909823  0.693069  0.523308  0.082210
    H   H41   0.193069  0.409825  0.976689  0.082215
    H   H42   0.590179  0.193069  0.976689  0.082212
    H   H43   0.806934  0.590179  0.976689  0.082228
    H   H44   0.409824  0.806934  0.976690  0.082230
    H   H45   0.193069  0.590179  0.023311  0.082210
    H   H46   0.590180  0.806934  0.023310  0.082215
    H   H47   0.806935  0.409824  0.023310  0.082214
    H   H48   0.409824  0.193069  0.023310  0.082213
    C   C105  0.782257  0.950136  0.486205  -0.108419
    C   C106  0.049868  0.782257  0.486205  -0.108486
    C   C107  0.217747  0.049868  0.486205  -0.108450
    C   C108  0.950135  0.217747  0.486206  -0.108431
    C   C109  0.782257  0.049868  0.513794  -0.108458
    C   C110  0.049869  0.217747  0.513794  -0.108465
    C   C111  0.217747  0.950136  0.513794  -0.108413
    C   C112  0.950136  0.782257  0.513794  -0.108453
    C   C113  0.282257  0.450137  0.986204  -0.108417
    C   C114  0.549867  0.282257  0.986204  -0.108461
    C   C115  0.717747  0.549867  0.986204  -0.108427
    C   C116  0.450136  0.717747  0.986205  -0.108384
    C   C117  0.282257  0.549867  0.013795  -0.108439
    C   C118  0.549868  0.717746  0.013795  -0.108430
    C   C119  0.717747  0.450136  0.013795  -0.108380
    C   C120  0.450137  0.282257  0.013795  -0.108425
    H   H49   0.807237  0.910717  0.475624  0.109923
    H   H50   0.089288  0.807237  0.475624  0.109948
    H   H51   0.192767  0.089287  0.475624  0.109931
    H   H52   0.910715  0.192767  0.475625  0.109921
    H   H53   0.807237  0.089287  0.524375  0.109934
    H   H54   0.089288  0.192766  0.524374  0.109938
    H   H55   0.192767  0.910716  0.524375  0.109910
    H   H56   0.910716  0.807237  0.524375  0.109929
    H   H57   0.307237  0.410718  0.975622  0.109926
    H   H58   0.589286  0.307237  0.975623  0.109943
    H   H59   0.692767  0.589286  0.975623  0.109931
    H   H60   0.410717  0.692767  0.975623  0.109908
    H   H61   0.307237  0.589285  0.024377  0.109933
    H   H62   0.589287  0.692766  0.024376  0.109932
    H   H63   0.692767  0.410718  0.024377  0.109906
    H   H64   0.410718  0.307237  0.024377  0.109922
    C   C121  0.814394  0.000002  0.500000  -0.063660
    C   C122  0.000002  0.814394  0.500000  -0.063646
    C   C123  0.185610  0.000002  0.500000  -0.063636
    C   C124  0.000002  0.185610  0.500000  -0.063636
    C   C125  0.314394  0.500002  0.000000  -0.063675
    C   C126  0.500002  0.314394  0.000000  -0.063682
    C   C127  0.685610  0.500002  0.000000  -0.063676
    C   C128  0.500002  0.685610  0.000000  -0.063709
    C   C129  0.685948  0.000002  0.500000  0.169789
    C   C130  0.000002  0.685948  0.499999  0.169796
    C   C131  0.314055  0.000002  0.499999  0.169901
    C   C132  0.000002  0.314055  0.500000  0.169880
    C   C133  0.185948  0.500002  0.000000  0.169819
    C   C134  0.500002  0.185948  0.999999  0.169858
    C   C135  0.814055  0.500002  0.999999  0.169848
    C   C136  0.500002  0.814055  0.000000  0.169843
    O   O33   0.980403  0.088594  0.471758  -0.654724
    O   O34   0.911410  0.980403  0.471758  -0.654717
    O   O35   0.019601  0.911410  0.471758  -0.654720
    O   O36   0.088594  0.019601  0.471758  -0.654728
    O   O37   0.980403  0.911410  0.528241  -0.654672
    O   O38   0.911410  0.019601  0.528241  -0.654671
    O   O39   0.019601  0.088594  0.528241  -0.654694
    O   O40   0.088594  0.980402  0.528241  -0.654676
    O   O41   0.480403  0.588594  0.971758  -0.654743
    O   O42   0.411410  0.480402  0.971758  -0.654745
    O   O43   0.519601  0.411410  0.971758  -0.654738
    O   O44   0.588594  0.519601  0.971758  -0.654744
    O   O45   0.480403  0.411410  0.028241  -0.654692
    O   O46   0.411410  0.519601  0.028241  -0.654686
    O   O47   0.519601  0.588594  0.028241  -0.654692
    O   O48   0.588594  0.480402  0.028241  -0.654686
    C   C137  0.000002  0.117683  0.500000  0.811060
    C   C138  0.882321  0.000002  0.500000  0.811069
    C   C139  0.000002  0.882321  0.500000  0.811075
    C   C140  0.117683  0.000002  0.500000  0.811042
    C   C141  0.500002  0.617683  0.000000  0.811091
    C   C142  0.382321  0.500002  0.000000  0.811060
    C   C143  0.500002  0.382321  0.000000  0.811096
    C   C144  0.617683  0.500002  0.000000  0.811052
    Cu  Cu9   0.000002  0.000002  0.466362  1.011420
    Cu  Cu10  0.000002  0.000002  0.533637  1.011483
    Cu  Cu11  0.500002  0.500002  0.966362  1.011453
    Cu  Cu12  0.500002  0.500002  0.033637  1.011511
    C   C145  0.502882  0.882224  0.895964  -0.376221
    C   C146  0.566677  0.863085  0.907751  0.278069
    C   C147  0.572924  0.804675  0.922372  -0.206222
    C   C148  0.630026  0.784074  0.934017  -0.083034
    C   C149  0.681647  0.821740  0.930964  -0.158613
    C   C150  0.676169  0.879720  0.915928  -0.104317
    C   C151  0.619123  0.900480  0.904148  -0.192043
    H   H65   0.486027  0.846094  0.877677  0.111287
    H   H66   0.470281  0.881607  0.918235  0.099137
    H   H67   0.532640  0.774757  0.924799  0.087838
    H   H68   0.634230  0.738379  0.945610  0.094626
    H   H69   0.726466  0.805693  0.940154  0.110561
    H   H70   0.716822  0.909105  0.913297  0.108078
    H   H71   0.617396  0.946082  0.892391  0.104982
    C   C152  0.117779  0.502884  0.895964  -0.376282
    C   C153  0.136917  0.566678  0.907752  0.278137
    C   C154  0.195328  0.572925  0.922373  -0.206270
    C   C155  0.215928  0.630027  0.934018  -0.083018
    C   C156  0.178262  0.681648  0.930966  -0.158625
    C   C157  0.120283  0.676170  0.915929  -0.104308
    C   C158  0.099523  0.619124  0.904148  -0.192077
    H   H72   0.153909  0.486029  0.877677  0.111295
    H   H73   0.118396  0.470282  0.918234  0.099151
    H   H74   0.225245  0.532641  0.924800  0.087855
    H   H75   0.261623  0.634231  0.945612  0.094626
    H   H76   0.194309  0.726466  0.940156  0.110571
    H   H77   0.090898  0.716824  0.913297  0.108073
    H   H78   0.053921  0.617398  0.892391  0.104992
    C   C159  0.497119  0.117777  0.895964  -0.376290
    C   C160  0.433325  0.136916  0.907752  0.278093
    C   C161  0.427077  0.195326  0.922372  -0.206237
    C   C162  0.369975  0.215927  0.934017  -0.083029
    C   C163  0.318355  0.178261  0.930965  -0.158601
    C   C164  0.323833  0.120281  0.915929  -0.104301
    C   C165  0.380879  0.099521  0.904149  -0.192075
    H   H79   0.513974  0.153907  0.877676  0.111291
    H   H80   0.529721  0.118394  0.918234  0.099150
    H   H81   0.467362  0.225244  0.924799  0.087844
    H   H82   0.365772  0.261623  0.945610  0.094623
    H   H83   0.273536  0.194308  0.940155  0.110557
    H   H84   0.283179  0.090896  0.913298  0.108070
    H   H85   0.382605  0.053919  0.892392  0.104990
    C   C166  0.882226  0.497122  0.895963  -0.375733
    C   C167  0.863087  0.433328  0.907751  0.277890
    C   C168  0.804676  0.427080  0.922372  -0.206279
    C   C169  0.784076  0.369978  0.934016  -0.082886
    C   C170  0.821742  0.318358  0.930964  -0.158758
    C   C171  0.879721  0.323836  0.915928  -0.104207
    C   C172  0.900481  0.380881  0.904147  -0.192054
    H   H86   0.846096  0.513978  0.877676  0.111160
    H   H87   0.881609  0.529723  0.918234  0.099062
    H   H88   0.774759  0.467365  0.924798  0.087872
    H   H89   0.738380  0.365775  0.945609  0.094567
    H   H90   0.805694  0.273539  0.940153  0.110618
    H   H91   0.909106  0.283182  0.913296  0.108037
    H   H92   0.946083  0.382608  0.892390  0.105000
    C   C173  0.502885  0.117779  0.104035  -0.376245
    C   C174  0.566679  0.136917  0.092248  0.278111
    C   C175  0.572926  0.195328  0.077627  -0.206242
    C   C176  0.630027  0.215929  0.065982  -0.082988
    C   C177  0.681648  0.178263  0.069034  -0.158681
    C   C178  0.676170  0.120283  0.084070  -0.104227
    C   C179  0.619125  0.099523  0.095851  -0.192122
    H   H93   0.486029  0.153909  0.122323  0.111282
    H   H94   0.470283  0.118396  0.081765  0.099155
    H   H95   0.532641  0.225246  0.075200  0.087844
    H   H96   0.634231  0.261624  0.054389  0.094625
    H   H97   0.726467  0.194311  0.059844  0.110575
    H   H98   0.716824  0.090899  0.086701  0.108058
    H   H99   0.617398  0.053921  0.107607  0.104981
    C   C180  0.117777  0.497119  0.104036  -0.376229
    C   C181  0.136916  0.433325  0.092248  0.278076
    C   C182  0.195327  0.427078  0.077627  -0.206278
    C   C183  0.215927  0.369976  0.065982  -0.082928
    C   C184  0.178262  0.318356  0.069034  -0.158755
    C   C185  0.120282  0.323833  0.084070  -0.104222
    C   C186  0.099522  0.380879  0.095851  -0.192080
    H   H100  0.153907  0.513975  0.122323  0.111284
    H   H101  0.118394  0.529721  0.081765  0.099140
    H   H102  0.225244  0.467363  0.075201  0.087863
    H   H103  0.261623  0.365773  0.054389  0.094596
    H   H104  0.194309  0.273537  0.059845  0.110622
    H   H105  0.090897  0.283180  0.086702  0.108050
    H   H106  0.053920  0.382606  0.107608  0.104985
    C   C187  0.497122  0.882225  0.104036  -0.376464
    C   C188  0.433328  0.863086  0.092248  0.278140
    C   C189  0.427081  0.804675  0.077628  -0.206299
    C   C190  0.369979  0.784074  0.065983  -0.082876
    C   C191  0.318358  0.821740  0.069036  -0.158816
    C   C192  0.323836  0.879720  0.084071  -0.104157
    C   C193  0.380881  0.900480  0.095852  -0.192127
    H   H107  0.513978  0.846096  0.122323  0.111340
    H   H108  0.529723  0.881608  0.081765  0.099170
    H   H109  0.467366  0.774758  0.075201  0.087861
    H   H110  0.365775  0.738378  0.054391  0.094583
    H   H111  0.273539  0.805692  0.059846  0.110628
    H   H112  0.283182  0.909104  0.086703  0.108033
    H   H113  0.382608  0.946083  0.107608  0.104991
    C   C194  0.882224  0.502881  0.104035  -0.376222
    C   C195  0.863085  0.566676  0.092248  0.278077
    C   C196  0.804675  0.572923  0.077627  -0.206248
    C   C197  0.784074  0.630025  0.065982  -0.082906
    C   C198  0.821740  0.681645  0.069035  -0.158782
    C   C199  0.879719  0.676167  0.084071  -0.104211
    C   C200  0.900479  0.619122  0.095852  -0.192081
    H   H114  0.846094  0.486025  0.122323  0.111272
    H   H115  0.881607  0.470280  0.081765  0.099154
    H   H116  0.774757  0.532638  0.075200  0.087835
    H   H117  0.738379  0.634228  0.054389  0.094597
    H   H118  0.805692  0.726464  0.059845  0.110624
    H   H119  0.909104  0.716821  0.086703  0.108044
    H   H120  0.946081  0.617395  0.107609  0.104981
    C   C201  0.002884  0.382224  0.395964  -0.376196
    C   C202  0.066678  0.363085  0.407751  0.278048
    C   C203  0.072925  0.304674  0.422372  -0.206201
    C   C204  0.130028  0.284073  0.434016  -0.083032
    C   C205  0.181648  0.321739  0.430964  -0.158596
    C   C206  0.176170  0.379719  0.415929  -0.104315
    C   C207  0.119124  0.400480  0.404149  -0.192062
    H   H121  0.986028  0.346094  0.377677  0.111278
    H   H122  0.970282  0.381607  0.418235  0.099131
    H   H123  0.032641  0.274756  0.424798  0.087831
    H   H124  0.134231  0.238377  0.445609  0.094623
    H   H125  0.226467  0.305691  0.440153  0.110562
    H   H126  0.216823  0.409105  0.413298  0.108076
    H   H127  0.117397  0.446082  0.392393  0.104989
    C   C208  0.617779  0.002886  0.395964  -0.376197
    C   C209  0.636917  0.066680  0.407752  0.278142
    C   C210  0.695328  0.072927  0.422372  -0.206272
    C   C211  0.715929  0.130029  0.434017  -0.082987
    C   C212  0.678263  0.181649  0.430965  -0.158668
    C   C213  0.620283  0.176171  0.415930  -0.104216
    C   C214  0.599523  0.119126  0.404149  -0.192153
    H   H128  0.653909  0.986030  0.377677  0.111286
    H   H129  0.618396  0.970284  0.418235  0.099127
    H   H130  0.725246  0.032642  0.424799  0.087846
    H   H131  0.761625  0.134233  0.445610  0.094618
    H   H132  0.694310  0.226468  0.440155  0.110571
    H   H133  0.590898  0.216825  0.413299  0.108056
    H   H134  0.553920  0.117399  0.392393  0.104992
    C   C215  0.997117  0.617777  0.395964  -0.376228
    C   C216  0.933323  0.636916  0.407752  0.278025
    C   C217  0.927076  0.695327  0.422372  -0.206207
    C   C218  0.869974  0.715928  0.434017  -0.083025
    C   C219  0.818353  0.678262  0.430965  -0.158631
    C   C220  0.823831  0.620281  0.415930  -0.104267
    C   C221  0.880877  0.599521  0.404150  -0.192084
    H   H135  0.013972  0.653907  0.377677  0.111290
    H   H136  0.029719  0.618395  0.418234  0.099123
    H   H137  0.967361  0.725245  0.424798  0.087844
    H   H138  0.865770  0.761624  0.445609  0.094620
    H   H139  0.773535  0.694310  0.440155  0.110569
    H   H140  0.783178  0.590896  0.413299  0.108067
    H   H141  0.882604  0.553918  0.392394  0.104987
    C   C222  0.382226  0.997120  0.395964  -0.375334
    C   C223  0.363087  0.933326  0.407751  0.277713
    C   C224  0.304676  0.927078  0.422371  -0.206186
    C   C225  0.284075  0.869976  0.434016  -0.082907
    C   C226  0.321741  0.818356  0.430964  -0.158756
    C   C227  0.379721  0.823834  0.415929  -0.104215
    C   C228  0.400482  0.880880  0.404148  -0.191987
    H   H142  0.346096  0.013976  0.377677  0.111084
    H   H143  0.381608  0.029721  0.418235  0.098991
    H   H144  0.274758  0.967363  0.424798  0.087839
    H   H145  0.238379  0.865773  0.445608  0.094574
    H   H146  0.305693  0.773537  0.440153  0.110619
    H   H147  0.409106  0.783180  0.413297  0.108040
    H   H148  0.446084  0.882607  0.392392  0.104967
    C   C229  0.002887  0.617779  0.604035  -0.376195
    C   C230  0.066681  0.636918  0.592247  0.278119
    C   C231  0.072928  0.695329  0.577627  -0.206250
    C   C232  0.130030  0.715930  0.565982  -0.082983
    C   C233  0.181650  0.678264  0.569034  -0.158688
    C   C234  0.176172  0.620283  0.584069  -0.104216
    C   C235  0.119127  0.599523  0.595850  -0.192136
    H   H149  0.986032  0.653909  0.622322  0.111295
    H   H150  0.970285  0.618396  0.581765  0.099127
    H   H151  0.032643  0.725247  0.575201  0.087842
    H   H152  0.134233  0.761626  0.554390  0.094620
    H   H153  0.226469  0.694311  0.559844  0.110577
    H   H154  0.216826  0.590898  0.586700  0.108057
    H   H155  0.117400  0.553920  0.607606  0.104985
    C   C236  0.617778  0.997118  0.604035  -0.376212
    C   C237  0.636916  0.933324  0.592248  0.278025
    C   C238  0.695328  0.927077  0.577628  -0.206193
    C   C239  0.715929  0.869976  0.565983  -0.083022
    C   C240  0.678263  0.818355  0.569035  -0.158628
    C   C241  0.620283  0.823832  0.584070  -0.104266
    C   C242  0.599522  0.880878  0.595850  -0.192073
    H   H156  0.653907  0.013974  0.622323  0.111287
    H   H157  0.618395  0.029720  0.581765  0.099123
    H   H158  0.725245  0.967362  0.575201  0.087837
    H   H159  0.761625  0.865772  0.554390  0.094618
    H   H160  0.694311  0.773536  0.559845  0.110563
    H   H161  0.590898  0.783179  0.586701  0.108065
    H   H162  0.553919  0.882605  0.607606  0.104979
    C   C243  0.997120  0.382225  0.604035  -0.375317
    C   C244  0.933326  0.363086  0.592248  0.277700
    C   C245  0.927079  0.304675  0.577628  -0.206164
    C   C246  0.869977  0.284073  0.565984  -0.082930
    C   C247  0.818356  0.321739  0.569036  -0.158752
    C   C248  0.823834  0.379720  0.584071  -0.104230
    C   C249  0.880880  0.400481  0.595851  -0.191963
    H   H163  0.013976  0.346096  0.622323  0.111075
    H   H164  0.029721  0.381608  0.581765  0.099000
    H   H165  0.967364  0.274757  0.575202  0.087841
    H   H166  0.865773  0.238377  0.554392  0.094580
    H   H167  0.773537  0.305691  0.559847  0.110621
    H   H168  0.783181  0.409105  0.586702  0.108046
    H   H169  0.882607  0.446084  0.607606  0.104963
    C   C250  0.382224  0.002883  0.604035  -0.376288
    C   C251  0.363085  0.066677  0.592248  0.278115
    C   C252  0.304674  0.072924  0.577628  -0.206233
    C   C253  0.284073  0.130026  0.565983  -0.083020
    C   C254  0.321739  0.181647  0.569035  -0.158622
    C   C255  0.379719  0.176169  0.584071  -0.104306
    C   C256  0.400480  0.119123  0.595851  -0.192089
    H   H170  0.346094  0.986027  0.622322  0.111292
    H   H171  0.381607  0.970282  0.581764  0.099167
    H   H172  0.274756  0.032640  0.575201  0.087839
    H   H173  0.238377  0.134230  0.554390  0.094621
    H   H174  0.305691  0.226466  0.559846  0.110570
    H   H175  0.409104  0.216823  0.586702  0.108075
    H   H176  0.446082  0.117396  0.607607  0.104996
