# Generated by REPEAT Assigner based on pymatgen
data_DB0-m2_o1_o3_f0_pcu.sym.2
_audit_creation_date              2022-05-24
_audit_creation_method            REPEAT_Assigner
_cell_length_a                    10.863515
_cell_length_b                    9.404467
_cell_length_c                    19.377565
_cell_angle_alpha                 90.000000
_cell_angle_beta                  89.995048
_cell_angle_gamma                 90.000000
_cell_volume                      1979.719978
_symmetry_space_group_name_H-M    P1
_symmetry_Int_Tables_number       1
loop_
    _symmetry_equiv_pos_site_id
    _symmetry_equiv_pos_as_xyz
    1  x,y,z
loop_
    _atom_site_type_symbol
    _atom_site_label
    _atom_site_fract_x
    _atom_site_fract_y
    _atom_site_fract_z
    _atom_type_partial_charge
    O   O1   0.320812  0.624169  0.502751  -0.609912
    O   O2   0.678576  0.379046  0.496618  -0.583340
    O   O3   0.678773  0.622534  0.503152  -0.623737
    O   O4   0.320918  0.379425  0.498787  -0.600026
    C   C1   0.872357  0.501319  0.499361  0.012458
    C   C2   0.128130  0.501152  0.499516  0.024846
    C   C3   0.263192  0.501957  0.500457  0.674934
    C   C4   0.736739  0.500707  0.499612  0.674894
    O   O5   0.496036  0.624433  0.400510  -0.638875
    O   O6   0.505143  0.377827  0.600459  -0.614544
    O   O7   0.495294  0.622072  0.601158  -0.613174
    O   O8   0.501564  0.380400  0.399903  -0.594619
    C   C5   0.499421  0.502390  0.367635  0.941154
    C   C6   0.500363  0.499477  0.633207  0.947747
    Cu  Cu1  0.499505  0.643341  0.500575  0.842495
    Cu  Cu2  0.499558  0.359174  0.500329  0.774993
    H   H1   0.346651  0.131567  0.433651  0.110184
    H   H2   0.665302  0.879823  0.560273  0.153513
    H   H3   0.648961  0.132275  0.569177  0.106746
    H   H4   0.349880  0.863882  0.434917  0.150103
    C   C7   0.064831  0.374028  0.497958  -0.130347
    C   C8   0.936849  0.628572  0.501397  -0.123353
    C   C9   0.937187  0.374438  0.498048  -0.112669
    C   C10  0.063434  0.627269  0.501214  -0.107156
    H   H5   0.116364  0.275007  0.496834  0.121654
    H   H6   0.892817  0.732017  0.503434  0.114429
    H   H7   0.889114  0.274575  0.497495  0.109121
    H   H8   0.111188  0.727352  0.502924  0.102953
    C   C11  0.416926  0.415841  0.745005  0.442291
    C   C12  0.414925  0.581376  0.255028  0.431853
    C   C13  0.585064  0.419611  0.255641  0.431362
    C   C14  0.584195  0.582530  0.745014  0.400408
    C   C15  0.417509  0.415184  0.816511  -0.392279
    C   C16  0.415015  0.579429  0.183795  -0.396608
    C   C17  0.585279  0.420191  0.184521  -0.383157
    C   C18  0.584383  0.579689  0.816420  -0.375002
    H   H9   0.353697  0.348663  0.844757  0.149201
    H   H10  0.348848  0.642757  0.155768  0.154087
    H   H11  0.650087  0.353146  0.157644  0.145429
    H   H12  0.648288  0.646640  0.844080  0.144665
    C   C19  0.501105  0.496758  0.852518  0.145693
    C   C20  0.500336  0.499443  0.148040  0.150088
    C   C21  0.416938  0.073687  0.461710  -0.050929
    C   C22  0.587952  0.930820  0.534983  -0.051554
    C   C23  0.583576  0.076234  0.537342  -0.031763
    C   C24  0.417280  0.926040  0.462426  -0.031345
    C   C25  0.500201  0.499869  0.709050  -0.568148
    C   C26  0.499931  0.501156  0.291798  -0.580238
    C   C27  0.390674  0.494083  0.964687  -0.173558
    C   C28  0.609699  0.497793  0.036019  -0.173199
    C   C29  0.390559  0.494609  0.035862  -0.187298
    C   C30  0.610189  0.498143  0.964855  -0.181334
    H   H13  0.303268  0.494257  0.937953  0.122987
    H   H14  0.696249  0.503169  0.063121  0.121404
    H   H15  0.303415  0.493008  0.062669  0.124078
    H   H16  0.697667  0.496195  0.938269  0.122839
    N   N1   0.500992  0.856359  0.501148  -0.002455
    N   N2   0.499251  0.146438  0.499592  0.073831
    C   C31  0.499990  0.496575  0.072069  0.146324
    C   C32  0.500517  0.496620  0.928500  0.144801
    C   C33  0.322526  0.329363  0.708024  -0.394459
    H   H17  0.269259  0.397820  0.672080  0.095023
    H   H18  0.367205  0.240163  0.679881  0.103586
    H   H19  0.258047  0.284580  0.746345  0.092179
    C   C34  0.319864  0.668713  0.290577  -0.351849
    H   H20  0.265944  0.604196  0.328109  0.082349
    H   H21  0.362267  0.763566  0.314991  0.099855
    H   H22  0.256525  0.708271  0.250686  0.073589
    C   C35  0.681256  0.335205  0.292533  -0.387546
    H   H23  0.728149  0.404222  0.330693  0.098089
    H   H24  0.637551  0.243731  0.318537  0.104594
    H   H25  0.751664  0.292027  0.256547  0.091189
    C   C36  0.678304  0.669938  0.707232  -0.355422
    H   H26  0.724252  0.602715  0.668150  0.084370
    H   H27  0.632740  0.758824  0.680198  0.096444
    H   H28  0.750599  0.716372  0.741369  0.085060
