# Generated by REPEAT Assigner based on pymatgen
data_DB0-m2_o1_o3_f0_nbo.sym.1
_audit_creation_date              2022-05-24
_audit_creation_method            REPEAT_Assigner
_cell_length_a                    21.505309
_cell_length_b                    21.505309
_cell_length_c                    38.571812
_cell_angle_alpha                 90.000000
_cell_angle_beta                  90.000000
_cell_angle_gamma                 90.000000
_cell_volume                      17838.625705
_symmetry_space_group_name_H-M    P1
_symmetry_Int_Tables_number       1
loop_
    _symmetry_equiv_pos_site_id
    _symmetry_equiv_pos_as_xyz
    1  x,y,z
loop_
    _atom_site_type_symbol
    _atom_site_label
    _atom_site_fract_x
    _atom_site_fract_y
    _atom_site_fract_z
    _atom_type_partial_charge
    O   O1    0.588544  0.051156  0.509851  -0.587681
    O   O2    0.948844  0.588544  0.509851  -0.587684
    O   O3    0.411456  0.948844  0.509851  -0.587673
    O   O4    0.051156  0.411456  0.509851  -0.587692
    O   O5    0.588544  0.948844  0.490149  -0.587681
    O   O6    0.948844  0.411456  0.490149  -0.587675
    O   O7    0.411456  0.051156  0.490149  -0.587689
    O   O8    0.051156  0.588544  0.490149  -0.587692
    O   O9    0.088544  0.551156  0.009851  -0.587707
    O   O10   0.448844  0.088544  0.009851  -0.587689
    O   O11   0.911456  0.448844  0.009851  -0.587683
    O   O12   0.551156  0.911456  0.009851  -0.587701
    O   O13   0.088544  0.448844  0.990149  -0.587687
    O   O14   0.448844  0.911456  0.990149  -0.587682
    O   O15   0.911456  0.551156  0.990149  -0.587692
    O   O16   0.551156  0.088544  0.990149  -0.587698
    C   C1    0.617671  0.000000  0.500000  0.657165
    C   C2    0.000000  0.617671  0.500000  0.657178
    C   C3    0.382329  0.000000  0.500000  0.657155
    C   C4    0.000000  0.382329  0.500000  0.657161
    C   C5    0.117671  0.500000  0.000000  0.657193
    C   C6    0.500000  0.117671  0.000000  0.657187
    C   C7    0.882329  0.500000  0.000000  0.657231
    C   C8    0.500000  0.882329  0.000000  0.657238
    O   O17   0.482442  0.051175  0.549482  -0.600578
    O   O18   0.948825  0.482442  0.549482  -0.600572
    O   O19   0.517558  0.948825  0.549482  -0.600569
    O   O20   0.051175  0.517558  0.549482  -0.600583
    O   O21   0.482442  0.948825  0.450518  -0.600576
    O   O22   0.948825  0.517558  0.450518  -0.600566
    O   O23   0.517558  0.051175  0.450518  -0.600588
    O   O24   0.051175  0.482442  0.450518  -0.600579
    O   O25   0.982442  0.551175  0.049482  -0.600582
    O   O26   0.448825  0.982442  0.049482  -0.600577
    O   O27   0.017558  0.448825  0.049482  -0.600576
    O   O28   0.551175  0.017558  0.049482  -0.600581
    O   O29   0.982442  0.448825  0.950518  -0.600575
    O   O30   0.448825  0.017558  0.950518  -0.600576
    O   O31   0.017558  0.551175  0.950518  -0.600578
    O   O32   0.551175  0.982442  0.950518  -0.600578
    C   C9    0.500000  0.000000  0.565765  0.709154
    C   C10   0.000000  0.500000  0.565765  0.709176
    C   C11   0.500000  0.000000  0.434235  0.709187
    C   C12   0.000000  0.500000  0.434235  0.709153
    C   C13   0.000000  0.500000  0.065765  0.709161
    C   C14   0.500000  0.000000  0.065765  0.709158
    C   C15   0.000000  0.500000  0.934235  0.709156
    C   C16   0.500000  0.000000  0.934235  0.709159
    Cu  Cu1   0.500000  0.060684  0.500000  0.955021
    Cu  Cu2   0.939316  0.500000  0.500000  0.955015
    Cu  Cu3   0.500000  0.939316  0.500000  0.955016
    Cu  Cu4   0.060684  0.500000  0.500000  0.955026
    Cu  Cu5   0.000000  0.560684  0.000000  0.955022
    Cu  Cu6   0.439316  0.000000  0.000000  0.955003
    Cu  Cu7   0.000000  0.439316  0.000000  0.955002
    Cu  Cu8   0.560684  0.000000  0.000000  0.955022
    C   C17   0.554745  0.991278  0.878166  -0.076485
    C   C18   0.008722  0.554745  0.878166  -0.076503
    C   C19   0.445255  0.008722  0.878166  -0.076511
    C   C20   0.991278  0.445255  0.878166  -0.076506
    C   C21   0.554745  0.008722  0.121834  -0.076498
    C   C22   0.008722  0.445255  0.121834  -0.076505
    C   C23   0.445255  0.991278  0.121834  -0.076474
    C   C24   0.991278  0.554745  0.121834  -0.076454
    C   C25   0.054745  0.491278  0.378166  -0.076476
    C   C26   0.508722  0.054745  0.378166  -0.076466
    C   C27   0.945255  0.508722  0.378166  -0.076493
    C   C28   0.491278  0.945255  0.378166  -0.076467
    C   C29   0.054745  0.508722  0.621834  -0.076471
    C   C30   0.508722  0.945255  0.621834  -0.076498
    C   C31   0.945255  0.491278  0.621834  -0.076472
    C   C32   0.491278  0.054745  0.621834  -0.076480
    H   H1    0.598324  0.985018  0.891656  0.114711
    H   H2    0.014982  0.598324  0.891656  0.114715
    H   H3    0.401676  0.014982  0.891656  0.114717
    H   H4    0.985018  0.401676  0.891656  0.114717
    H   H5    0.598324  0.014982  0.108344  0.114715
    H   H6    0.014982  0.401676  0.108344  0.114717
    H   H7    0.401676  0.985018  0.108344  0.114711
    H   H8    0.985018  0.598324  0.108344  0.114706
    H   H9    0.098324  0.485018  0.391656  0.114709
    H   H10   0.514982  0.098324  0.391656  0.114707
    H   H11   0.901676  0.514982  0.391656  0.114716
    H   H12   0.485018  0.901676  0.391656  0.114709
    H   H13   0.098324  0.514982  0.608344  0.114707
    H   H14   0.514982  0.901676  0.608344  0.114716
    H   H15   0.901676  0.485018  0.608344  0.114709
    H   H16   0.485018  0.098324  0.608344  0.114709
    C   C33   0.554795  0.991609  0.842433  -0.159523
    C   C34   0.008391  0.554795  0.842433  -0.159500
    C   C35   0.445205  0.008391  0.842433  -0.159474
    C   C36   0.991609  0.445205  0.842433  -0.159495
    C   C37   0.554795  0.008391  0.157567  -0.159513
    C   C38   0.008391  0.445205  0.157567  -0.159487
    C   C39   0.445205  0.991609  0.157567  -0.159543
    C   C40   0.991609  0.554795  0.157567  -0.159569
    C   C41   0.054795  0.491609  0.342433  -0.159523
    C   C42   0.508391  0.054795  0.342433  -0.159515
    C   C43   0.945205  0.508391  0.342433  -0.159460
    C   C44   0.491609  0.945205  0.342433  -0.159494
    C   C45   0.054795  0.508391  0.657567  -0.159508
    C   C46   0.508391  0.945205  0.657567  -0.159450
    C   C47   0.945205  0.491609  0.657567  -0.159485
    C   C48   0.491609  0.054795  0.657567  -0.159515
    H   H17   0.598610  0.986545  0.829039  0.112187
    H   H18   0.013455  0.598610  0.829039  0.112182
    H   H19   0.401390  0.013455  0.829039  0.112173
    H   H20   0.986545  0.401390  0.829039  0.112176
    H   H21   0.598610  0.013455  0.170961  0.112185
    H   H22   0.013455  0.401390  0.170961  0.112176
    H   H23   0.401390  0.986545  0.170961  0.112193
    H   H24   0.986545  0.598610  0.170961  0.112204
    H   H25   0.098610  0.486545  0.329039  0.112188
    H   H26   0.513455  0.098610  0.329039  0.112183
    H   H27   0.901390  0.513455  0.329039  0.112161
    H   H28   0.486545  0.901390  0.329039  0.112175
    H   H29   0.098610  0.513455  0.670961  0.112183
    H   H30   0.513455  0.901390  0.670961  0.112159
    H   H31   0.901390  0.486545  0.670961  0.112172
    H   H32   0.486545  0.098610  0.670961  0.112187
    C   C49   0.500000  0.000000  0.824235  0.100519
    C   C50   0.000000  0.500000  0.824235  0.100542
    C   C51   0.500000  0.000000  0.175765  0.100602
    C   C52   0.000000  0.500000  0.175765  0.100579
    C   C53   0.000000  0.500000  0.324235  0.100477
    C   C54   0.500000  0.000000  0.324235  0.100464
    C   C55   0.000000  0.500000  0.675765  0.100452
    C   C56   0.500000  0.000000  0.675765  0.100466
    C   C57   0.500000  0.000000  0.896245  -0.069144
    C   C58   0.000000  0.500000  0.896245  -0.069135
    C   C59   0.500000  0.000000  0.103755  -0.069152
    C   C60   0.000000  0.500000  0.103755  -0.069160
    C   C61   0.000000  0.500000  0.396245  -0.069163
    C   C62   0.500000  0.000000  0.396245  -0.069190
    C   C63   0.000000  0.500000  0.603755  -0.069182
    C   C64   0.500000  0.000000  0.603755  -0.069159
    C   C65   0.460907  0.039238  0.767865  -0.140370
    C   C66   0.960762  0.460907  0.767865  -0.140079
    C   C67   0.539093  0.960762  0.767865  -0.140244
    C   C68   0.039238  0.539093  0.767865  -0.140160
    C   C69   0.460907  0.960762  0.232135  -0.139958
    C   C70   0.960762  0.539093  0.232135  -0.140123
    C   C71   0.539093  0.039238  0.232135  -0.140116
    C   C72   0.039238  0.460907  0.232135  -0.140324
    C   C73   0.960907  0.539238  0.267865  -0.140717
    C   C74   0.460762  0.960907  0.267865  -0.140880
    C   C75   0.039093  0.460762  0.267865  -0.140539
    C   C76   0.539238  0.039093  0.267865  -0.140756
    C   C77   0.960907  0.460762  0.732135  -0.140828
    C   C78   0.460762  0.039093  0.732135  -0.140522
    C   C79   0.039093  0.539238  0.732135  -0.140740
    C   C80   0.539238  0.960907  0.732135  -0.140666
    H   H33   0.430636  0.071328  0.781248  0.112749
    H   H34   0.928672  0.430636  0.781248  0.112709
    H   H35   0.569364  0.928672  0.781248  0.112737
    H   H36   0.071328  0.569364  0.781248  0.112727
    H   H37   0.430636  0.928672  0.218752  0.112658
    H   H38   0.928672  0.569364  0.218752  0.112686
    H   H39   0.569364  0.071328  0.218752  0.112717
    H   H40   0.071328  0.430636  0.218752  0.112740
    H   H41   0.930636  0.571328  0.281248  0.112816
    H   H42   0.428672  0.930636  0.281248  0.112844
    H   H43   0.069364  0.428672  0.281248  0.112782
    H   H44   0.571328  0.069364  0.281248  0.112811
    H   H45   0.930636  0.428672  0.718752  0.112831
    H   H46   0.428672  0.069364  0.718752  0.112780
    H   H47   0.069364  0.571328  0.718752  0.112809
    H   H48   0.571328  0.930636  0.718752  0.112802
    C   C81   0.500000  0.000000  0.713929  0.072023
    C   C82   0.000000  0.500000  0.713929  0.072202
    C   C83   0.500000  0.000000  0.286071  0.072210
    C   C84   0.000000  0.500000  0.286071  0.072031
    C   C85   0.000000  0.500000  0.213929  0.071657
    C   C86   0.500000  0.000000  0.213929  0.071480
    C   C87   0.000000  0.500000  0.786071  0.071580
    C   C88   0.500000  0.000000  0.786071  0.071758
    C   C89   0.717951  0.959834  0.478641  -0.111206
    C   C90   0.040166  0.717951  0.478641  -0.111166
    C   C91   0.282049  0.040166  0.478641  -0.111198
    C   C92   0.959834  0.282049  0.478641  -0.111186
    C   C93   0.717951  0.040166  0.521359  -0.111201
    C   C94   0.040166  0.282049  0.521359  -0.111196
    C   C95   0.282049  0.959834  0.521359  -0.111186
    C   C96   0.959834  0.717951  0.521359  -0.111184
    C   C97   0.217951  0.459834  0.978641  -0.111167
    C   C98   0.540166  0.217951  0.978641  -0.111184
    C   C99   0.782049  0.540166  0.978641  -0.111175
    C   C100  0.459834  0.782049  0.978641  -0.111157
    C   C101  0.217951  0.540166  0.021359  -0.111158
    C   C102  0.540166  0.782049  0.021359  -0.111153
    C   C103  0.782049  0.459834  0.021359  -0.111171
    C   C104  0.459834  0.217951  0.021359  -0.111177
    H   H49   0.693432  0.928414  0.461577  0.121208
    H   H50   0.071586  0.693433  0.461577  0.121200
    H   H51   0.306568  0.071586  0.461577  0.121219
    H   H52   0.928414  0.306568  0.461577  0.121214
    H   H53   0.693432  0.071586  0.538423  0.121212
    H   H54   0.071586  0.306568  0.538423  0.121219
    H   H55   0.306568  0.928414  0.538423  0.121214
    H   H56   0.928414  0.693433  0.538423  0.121194
    H   H57   0.193432  0.428414  0.961577  0.121209
    H   H58   0.571586  0.193432  0.961577  0.121216
    H   H59   0.806568  0.571586  0.961577  0.121215
    H   H60   0.428414  0.806568  0.961577  0.121208
    H   H61   0.193433  0.571586  0.038423  0.121204
    H   H62   0.571586  0.806567  0.038423  0.121206
    H   H63   0.806568  0.428414  0.038423  0.121212
    H   H64   0.428414  0.193432  0.038423  0.121210
    C   C105  0.782040  0.960632  0.478186  -0.093604
    C   C106  0.039368  0.782040  0.478186  -0.093583
    C   C107  0.217960  0.039368  0.478186  -0.093625
    C   C108  0.960632  0.217960  0.478186  -0.093639
    C   C109  0.782040  0.039368  0.521814  -0.093585
    C   C110  0.039368  0.217960  0.521814  -0.093626
    C   C111  0.217960  0.960632  0.521814  -0.093638
    C   C112  0.960632  0.782040  0.521814  -0.093558
    C   C113  0.282040  0.460632  0.978186  -0.093637
    C   C114  0.539368  0.282040  0.978186  -0.093633
    C   C115  0.717960  0.539368  0.978186  -0.093629
    C   C116  0.460632  0.717960  0.978186  -0.093632
    C   C117  0.282040  0.539368  0.021814  -0.093629
    C   C118  0.539368  0.717960  0.021814  -0.093622
    C   C119  0.717960  0.460632  0.021814  -0.093632
    C   C120  0.460632  0.282040  0.021814  -0.093640
    H   H65   0.806569  0.929193  0.461135  0.115587
    H   H66   0.070807  0.806569  0.461136  0.115563
    H   H67   0.193431  0.070807  0.461136  0.115564
    H   H68   0.929193  0.193431  0.461136  0.115573
    H   H69   0.806569  0.070807  0.538864  0.115559
    H   H70   0.070807  0.193431  0.538864  0.115565
    H   H71   0.193431  0.929193  0.538864  0.115571
    H   H72   0.929193  0.806569  0.538864  0.115560
    H   H73   0.306569  0.429193  0.961136  0.115569
    H   H74   0.570807  0.306569  0.961136  0.115568
    H   H75   0.693431  0.570807  0.961136  0.115562
    H   H76   0.429193  0.693431  0.961136  0.115563
    H   H77   0.306569  0.570807  0.038864  0.115573
    H   H78   0.570807  0.693431  0.038864  0.115566
    H   H79   0.693431  0.429193  0.038864  0.115564
    H   H80   0.429193  0.306569  0.038864  0.115571
    C   C121  0.814317  0.000000  0.500000  -0.040383
    C   C122  0.000000  0.814317  0.500000  -0.040417
    C   C123  0.185683  0.000000  0.500000  -0.040316
    C   C124  0.000000  0.185683  0.500000  -0.040316
    C   C125  0.314317  0.500000  0.000000  -0.040332
    C   C126  0.500000  0.314317  0.000000  -0.040319
    C   C127  0.685683  0.500000  0.000000  -0.040310
    C   C128  0.500000  0.685683  0.000000  -0.040323
    C   C129  0.685670  0.000000  0.500000  0.009467
    C   C130  0.000000  0.685670  0.500000  0.009426
    C   C131  0.314330  0.000000  0.500000  0.009469
    C   C132  0.000000  0.314330  0.500000  0.009466
    C   C133  0.185670  0.500000  0.000000  0.009425
    C   C134  0.500000  0.185670  0.000000  0.009448
    C   C135  0.814330  0.500000  0.000000  0.009405
    C   C136  0.500000  0.814330  0.000000  0.009382
    O   O33   0.981215  0.088545  0.471683  -0.604633
    O   O34   0.911455  0.981215  0.471683  -0.604613
    O   O35   0.018785  0.911455  0.471683  -0.604624
    O   O36   0.088545  0.018785  0.471683  -0.604639
    O   O37   0.981215  0.911455  0.528317  -0.604628
    O   O38   0.911455  0.018785  0.528317  -0.604618
    O   O39   0.018785  0.088545  0.528317  -0.604642
    O   O40   0.088545  0.981215  0.528317  -0.604633
    O   O41   0.481215  0.588545  0.971683  -0.604633
    O   O42   0.411455  0.481215  0.971683  -0.604642
    O   O43   0.518785  0.411455  0.971683  -0.604643
    O   O44   0.588545  0.518785  0.971683  -0.604634
    O   O45   0.481215  0.411455  0.028317  -0.604645
    O   O46   0.411455  0.518785  0.028317  -0.604649
    O   O47   0.518785  0.588545  0.028317  -0.604640
    O   O48   0.588545  0.481215  0.028317  -0.604636
    C   C137  0.000000  0.117691  0.500000  0.725830
    C   C138  0.882309  0.000000  0.500000  0.725827
    C   C139  0.000000  0.882309  0.500000  0.725856
    C   C140  0.117691  0.000000  0.500000  0.725826
    C   C141  0.500000  0.617691  0.000000  0.725829
    C   C142  0.382309  0.500000  0.000000  0.725853
    C   C143  0.500000  0.382309  0.000000  0.725846
    C   C144  0.617691  0.500000  0.000000  0.725822
    Cu  Cu9   0.000000  0.000000  0.466335  0.951718
    Cu  Cu10  0.000000  0.000000  0.533665  0.951722
    Cu  Cu11  0.500000  0.500000  0.966335  0.951745
    Cu  Cu12  0.500000  0.500000  0.033665  0.951753
