# Generated by REPEAT Assigner based on pymatgen
data_DB0-m2_o1_o3_f0_nbo.sym.2_sqe
_audit_creation_date              2022-05-24
_audit_creation_method            REPEAT_Assigner
_cell_length_a                    21.523339
_cell_length_b                    21.523339
_cell_length_c                    38.477845
_cell_angle_alpha                 90.000000
_cell_angle_beta                  90.000000
_cell_angle_gamma                 90.000000
_cell_volume                      17825.020788
_symmetry_space_group_name_H-M    P1
_symmetry_Int_Tables_number       1
loop_
    _symmetry_equiv_pos_site_id
    _symmetry_equiv_pos_as_xyz
    1  x,y,z
loop_
    _atom_site_type_symbol
    _atom_site_label
    _atom_site_fract_x
    _atom_site_fract_y
    _atom_site_fract_z
    _atom_type_partial_charge
    O   O1    0.588602  0.051352  0.490512  -0.653303
    O   O2    0.948648  0.588602  0.490512  -0.653294
    O   O3    0.411398  0.948648  0.490512  -0.653309
    O   O4    0.051352  0.411398  0.490512  -0.653317
    O   O5    0.588602  0.948648  0.509488  -0.653307
    O   O6    0.948648  0.411398  0.509488  -0.653298
    O   O7    0.411398  0.051352  0.509488  -0.653307
    O   O8    0.051352  0.588602  0.509488  -0.653317
    O   O9    0.088602  0.551352  0.990512  -0.653325
    O   O10   0.448648  0.088602  0.990512  -0.653307
    O   O11   0.911398  0.448648  0.990512  -0.653303
    O   O12   0.551352  0.911398  0.990512  -0.653314
    O   O13   0.088602  0.448648  0.009488  -0.653303
    O   O14   0.448648  0.911398  0.009488  -0.653303
    O   O15   0.911398  0.551352  0.009488  -0.653324
    O   O16   0.551352  0.088602  0.009488  -0.653313
    C   C1    0.617541  0.000000  0.500000  1.058333
    C   C2    0.000000  0.617541  0.500000  1.058383
    C   C3    0.382459  0.000000  0.500000  1.058336
    C   C4    0.000000  0.382459  0.500000  1.058388
    C   C5    0.117541  0.500000  0.000000  1.058370
    C   C6    0.500000  0.117541  0.000000  1.058392
    C   C7    0.882459  0.500000  0.000000  1.058374
    C   C8    0.500000  0.882459  0.000000  1.058388
    O   O17   0.516979  0.051306  0.549664  -0.586494
    O   O18   0.948694  0.516979  0.549664  -0.586483
    O   O19   0.483021  0.948694  0.549664  -0.586501
    O   O20   0.051306  0.483021  0.549664  -0.586502
    O   O21   0.516979  0.948694  0.450336  -0.586495
    O   O22   0.948694  0.483021  0.450336  -0.586479
    O   O23   0.483021  0.051306  0.450336  -0.586490
    O   O24   0.051306  0.516979  0.450336  -0.586497
    O   O25   0.016979  0.551306  0.049664  -0.586498
    O   O26   0.448694  0.016979  0.049664  -0.586484
    O   O27   0.983021  0.448694  0.049664  -0.586490
    O   O28   0.551306  0.983021  0.049664  -0.586490
    O   O29   0.016979  0.448694  0.950336  -0.586492
    O   O30   0.448694  0.983021  0.950336  -0.586486
    O   O31   0.983021  0.551306  0.950336  -0.586502
    O   O32   0.551306  0.016979  0.950336  -0.586492
    C   C9    0.500000  0.000000  0.565957  0.628010
    C   C10   0.000000  0.500000  0.565957  0.628055
    C   C11   0.500000  0.000000  0.434043  0.627998
    C   C12   0.000000  0.500000  0.434043  0.628043
    C   C13   0.000000  0.500000  0.065957  0.628011
    C   C14   0.500000  0.000000  0.065957  0.628033
    C   C15   0.000000  0.500000  0.934043  0.627997
    C   C16   0.500000  0.000000  0.934043  0.628016
    Cu  Cu1   0.500000  0.060771  0.500000  0.940902
    Cu  Cu2   0.939229  0.500000  0.500000  0.941010
    Cu  Cu3   0.500000  0.939229  0.500000  0.940868
    Cu  Cu4   0.060771  0.500000  0.500000  0.940951
    Cu  Cu5   0.000000  0.560771  0.000000  0.940920
    Cu  Cu6   0.439229  0.000000  0.000000  0.941010
    Cu  Cu7   0.000000  0.439229  0.000000  0.940960
    Cu  Cu8   0.560771  0.000000  0.000000  0.940993
    C   C17   0.555389  0.002662  0.877922  -0.090917
    C   C18   0.997338  0.555389  0.877922  -0.090916
    C   C19   0.444611  0.997338  0.877922  -0.090912
    C   C20   0.002661  0.444611  0.877922  -0.090925
    C   C21   0.555389  0.997338  0.122078  -0.090912
    C   C22   0.997338  0.444611  0.122078  -0.090924
    C   C23   0.444611  0.002662  0.122078  -0.090916
    C   C24   0.002661  0.555389  0.122078  -0.090915
    C   C25   0.055389  0.502662  0.377922  -0.090912
    C   C26   0.497338  0.055389  0.377922  -0.090928
    C   C27   0.944611  0.497338  0.377922  -0.090908
    C   C28   0.502661  0.944611  0.377922  -0.090927
    C   C29   0.055389  0.497338  0.622078  -0.090923
    C   C30   0.497338  0.944611  0.622078  -0.090934
    C   C31   0.944611  0.502662  0.622078  -0.090909
    C   C32   0.502661  0.055389  0.622078  -0.090932
    H   H1    0.599285  0.004533  0.891503  0.115969
    H   H2    0.995467  0.599285  0.891503  0.115969
    H   H3    0.400715  0.995467  0.891503  0.115968
    H   H4    0.004533  0.400715  0.891503  0.115972
    H   H5    0.599285  0.995467  0.108497  0.115970
    H   H6    0.995467  0.400715  0.108497  0.115972
    H   H7    0.400715  0.004533  0.108497  0.115971
    H   H8    0.004533  0.599285  0.108497  0.115969
    H   H9    0.099285  0.504533  0.391503  0.115967
    H   H10   0.495467  0.099285  0.391503  0.115973
    H   H11   0.900715  0.495467  0.391503  0.115967
    H   H12   0.504533  0.900715  0.391503  0.115972
    H   H13   0.099285  0.495467  0.608497  0.115972
    H   H14   0.495467  0.900715  0.608497  0.115976
    H   H15   0.900715  0.504533  0.608497  0.115968
    H   H16   0.504533  0.099285  0.608497  0.115975
    C   C33   0.555383  0.001860  0.842108  -0.175031
    C   C34   0.998140  0.555383  0.842108  -0.175036
    C   C35   0.444617  0.998140  0.842108  -0.175037
    C   C36   0.001860  0.444617  0.842108  -0.175023
    C   C37   0.555383  0.998140  0.157893  -0.175059
    C   C38   0.998140  0.444617  0.157893  -0.175039
    C   C39   0.444617  0.001860  0.157893  -0.175056
    C   C40   0.001860  0.555383  0.157892  -0.175036
    C   C41   0.055383  0.501860  0.342108  -0.175031
    C   C42   0.498140  0.055383  0.342108  -0.175024
    C   C43   0.944617  0.498140  0.342108  -0.175036
    C   C44   0.501860  0.944617  0.342108  -0.175026
    C   C45   0.055383  0.498140  0.657893  -0.175041
    C   C46   0.498140  0.944617  0.657893  -0.175038
    C   C47   0.944617  0.501860  0.657892  -0.175042
    C   C48   0.501860  0.055383  0.657892  -0.175026
    H   H17   0.599099  0.004136  0.828350  0.116964
    H   H18   0.995864  0.599100  0.828350  0.116967
    H   H19   0.400900  0.995864  0.828350  0.116964
    H   H20   0.004136  0.400901  0.828350  0.116964
    H   H21   0.599100  0.995864  0.171650  0.116977
    H   H22   0.995864  0.400900  0.171650  0.116974
    H   H23   0.400900  0.004136  0.171650  0.116976
    H   H24   0.004136  0.599099  0.171650  0.116967
    H   H25   0.099099  0.504136  0.328350  0.116964
    H   H26   0.495864  0.099099  0.328350  0.116965
    H   H27   0.900900  0.495864  0.328350  0.116964
    H   H28   0.504136  0.900900  0.328350  0.116964
    H   H29   0.099099  0.495864  0.671650  0.116972
    H   H30   0.495864  0.900900  0.671650  0.116973
    H   H31   0.900900  0.504136  0.671650  0.116965
    H   H32   0.504136  0.099099  0.671650  0.116965
    C   C49   0.500000  0.000000  0.824038  0.109610
    C   C50   0.000000  0.500000  0.824038  0.109612
    C   C51   0.500000  0.000000  0.175962  0.109649
    C   C52   0.000000  0.500000  0.175962  0.109628
    C   C53   0.000000  0.500000  0.324038  0.109610
    C   C54   0.500000  0.000000  0.324038  0.109613
    C   C55   0.000000  0.500000  0.675962  0.109624
    C   C56   0.500000  0.000000  0.675962  0.109626
    C   C57   0.500000  0.000000  0.896005  0.022435
    C   C58   0.000000  0.500000  0.896005  0.022439
    C   C59   0.500000  0.000000  0.103995  0.022421
    C   C60   0.000000  0.500000  0.103995  0.022426
    C   C61   0.000000  0.500000  0.396005  0.022412
    C   C62   0.500000  0.000000  0.396005  0.022438
    C   C63   0.000000  0.500000  0.603995  0.022411
    C   C64   0.500000  0.000000  0.603995  0.022435
    C   C65   0.460515  0.038897  0.767907  -0.137671
    C   C66   0.961103  0.460515  0.767907  -0.137675
    C   C67   0.539485  0.961103  0.767907  -0.137673
    C   C68   0.038897  0.539485  0.767907  -0.137673
    C   C69   0.460515  0.961103  0.232093  -0.137687
    C   C70   0.961103  0.539485  0.232093  -0.137686
    C   C71   0.539485  0.038897  0.232093  -0.137686
    C   C72   0.038897  0.460515  0.232093  -0.137685
    C   C73   0.960515  0.538897  0.267907  -0.137671
    C   C74   0.461103  0.960515  0.267907  -0.137668
    C   C75   0.039485  0.461103  0.267907  -0.137672
    C   C76   0.538897  0.039485  0.267907  -0.137671
    C   C77   0.960515  0.461103  0.732093  -0.137683
    C   C78   0.461103  0.039485  0.732093  -0.137686
    C   C79   0.039485  0.538897  0.732093  -0.137687
    C   C80   0.538897  0.960515  0.732093  -0.137685
    H   H33   0.429820  0.070119  0.781657  0.110735
    H   H34   0.929880  0.429820  0.781657  0.110733
    H   H35   0.570180  0.929880  0.781657  0.110734
    H   H36   0.070119  0.570180  0.781657  0.110734
    H   H37   0.429820  0.929881  0.218343  0.110736
    H   H38   0.929880  0.570180  0.218344  0.110738
    H   H39   0.570180  0.070119  0.218343  0.110737
    H   H40   0.070119  0.429820  0.218343  0.110737
    H   H41   0.929820  0.570119  0.281657  0.110734
    H   H42   0.429881  0.929820  0.281657  0.110733
    H   H43   0.070180  0.429880  0.281657  0.110734
    H   H44   0.570119  0.070180  0.281657  0.110733
    H   H45   0.929820  0.429881  0.718343  0.110736
    H   H46   0.429880  0.070180  0.718343  0.110736
    H   H47   0.070180  0.570120  0.718343  0.110737
    H   H48   0.570119  0.929820  0.718343  0.110737
    C   C81   0.500000  0.000000  0.714021  0.070768
    C   C82   0.000000  0.500000  0.714021  0.070767
    C   C83   0.500000  0.000000  0.285979  0.070758
    C   C84   0.000000  0.500000  0.285979  0.070761
    C   C85   0.000000  0.500000  0.214021  0.070765
    C   C86   0.500000  0.000000  0.214021  0.070759
    C   C87   0.000000  0.500000  0.785979  0.070763
    C   C88   0.500000  0.000000  0.785979  0.070763
    C   C89   0.717366  0.991323  0.469261  0.419097
    C   C90   0.008677  0.717366  0.469261  0.419101
    C   C91   0.282634  0.008677  0.469261  0.419094
    C   C92   0.991323  0.282634  0.469261  0.419100
    C   C93   0.717366  0.008677  0.530739  0.419102
    C   C94   0.008677  0.282634  0.530739  0.419106
    C   C95   0.282634  0.991323  0.530739  0.419100
    C   C96   0.991323  0.717366  0.530739  0.419106
    C   C97   0.217366  0.491323  0.969261  0.419103
    C   C98   0.508677  0.217366  0.969261  0.419102
    C   C99   0.782634  0.508677  0.969261  0.419103
    C   C100  0.491323  0.782634  0.969261  0.419099
    C   C101  0.217366  0.508677  0.030739  0.419110
    C   C102  0.508677  0.782634  0.030739  0.419094
    C   C103  0.782634  0.491323  0.030739  0.419103
    C   C104  0.491323  0.217366  0.030739  0.419117
    C   C105  0.781515  0.990947  0.469363  -0.333764
    C   C106  0.009053  0.781515  0.469363  -0.333771
    C   C107  0.218485  0.009053  0.469363  -0.333765
    C   C108  0.990947  0.218485  0.469363  -0.333771
    C   C109  0.781515  0.009053  0.530637  -0.333773
    C   C110  0.009053  0.218485  0.530637  -0.333780
    C   C111  0.218485  0.990947  0.530637  -0.333773
    C   C112  0.990947  0.781515  0.530637  -0.333779
    C   C113  0.281515  0.490947  0.969363  -0.333773
    C   C114  0.509053  0.281515  0.969363  -0.333771
    C   C115  0.718485  0.509053  0.969363  -0.333766
    C   C116  0.490947  0.718485  0.969363  -0.333772
    C   C117  0.281515  0.509053  0.030637  -0.333779
    C   C118  0.509053  0.718485  0.030637  -0.333771
    C   C119  0.718485  0.490947  0.030637  -0.333766
    C   C120  0.490947  0.281515  0.030637  -0.333776
    H   H49   0.806275  0.984057  0.445255  0.158950
    H   H50   0.015943  0.806275  0.445255  0.158950
    H   H51   0.193725  0.015943  0.445255  0.158951
    H   H52   0.984057  0.193725  0.445255  0.158950
    H   H53   0.806275  0.015943  0.554745  0.158952
    H   H54   0.015943  0.193725  0.554745  0.158951
    H   H55   0.193725  0.984057  0.554745  0.158952
    H   H56   0.984057  0.806275  0.554745  0.158951
    H   H57   0.306275  0.484057  0.945255  0.158950
    H   H58   0.515943  0.306275  0.945255  0.158947
    H   H59   0.693724  0.515943  0.945255  0.158946
    H   H60   0.484057  0.693725  0.945255  0.158948
    H   H61   0.306275  0.515943  0.054745  0.158951
    H   H62   0.515943  0.693724  0.054745  0.158947
    H   H63   0.693725  0.484057  0.054745  0.158947
    H   H64   0.484057  0.306275  0.054745  0.158948
    C   C121  0.813807  0.000000  0.500000  0.033254
    C   C122  0.000000  0.813807  0.500000  0.033256
    C   C123  0.186193  0.000000  0.500000  0.033258
    C   C124  0.000000  0.186193  0.500000  0.033259
    C   C125  0.313807  0.500000  0.000000  0.033253
    C   C126  0.500000  0.313807  0.000000  0.033244
    C   C127  0.686193  0.500000  0.000000  0.033244
    C   C128  0.500000  0.686193  0.000000  0.033252
    C   C129  0.685300  0.000000  0.500000  -0.540693
    C   C130  0.000000  0.685300  0.500000  -0.540716
    C   C131  0.314700  0.000000  0.500000  -0.540690
    C   C132  0.000000  0.314700  0.500000  -0.540717
    C   C133  0.185300  0.500000  0.000000  -0.540719
    C   C134  0.500000  0.185300  0.000000  -0.540719
    C   C135  0.814700  0.500000  0.000000  -0.540717
    C   C136  0.500000  0.814700  0.000000  -0.540707
    O   O33   0.983013  0.088841  0.471361  -0.591675
    O   O34   0.911159  0.983013  0.471361  -0.591674
    O   O35   0.016987  0.911159  0.471361  -0.591675
    O   O36   0.088841  0.016987  0.471361  -0.591675
    O   O37   0.983013  0.911159  0.528639  -0.591680
    O   O38   0.911159  0.016987  0.528639  -0.591681
    O   O39   0.016987  0.088841  0.528639  -0.591683
    O   O40   0.088841  0.983013  0.528639  -0.591682
    O   O41   0.483013  0.588841  0.971361  -0.591712
    O   O42   0.411158  0.483013  0.971361  -0.591709
    O   O43   0.516987  0.411159  0.971361  -0.591713
    O   O44   0.588841  0.516987  0.971361  -0.591709
    O   O45   0.483013  0.411159  0.028639  -0.591702
    O   O46   0.411158  0.516987  0.028639  -0.591701
    O   O47   0.516987  0.588841  0.028639  -0.591703
    O   O48   0.588841  0.483013  0.028639  -0.591700
    C   C137  0.000000  0.118074  0.500000  0.710846
    C   C138  0.881926  0.000000  0.500000  0.710856
    C   C139  0.000000  0.881926  0.500000  0.710850
    C   C140  0.118074  0.000000  0.500000  0.710852
    C   C141  0.500000  0.618074  0.000000  0.710859
    C   C142  0.381926  0.500000  0.000000  0.710880
    C   C143  0.500000  0.381926  0.000000  0.710876
    C   C144  0.618074  0.500000  0.000000  0.710873
    Cu  Cu9   0.000000  0.000000  0.466093  0.926390
    Cu  Cu10  0.000000  0.000000  0.533907  0.926332
    Cu  Cu11  0.500000  0.500000  0.966093  0.926330
    Cu  Cu12  0.500000  0.500000  0.033907  0.926318
    C   C145  0.682915  0.981542  0.436039  -0.428270
    H   H65   0.715936  0.974638  0.414283  0.112918
    H   H66   0.653104  0.939677  0.438149  0.107889
    H   H67   0.653798  0.022758  0.430199  0.106274
    C   C146  0.018457  0.682915  0.436039  -0.428270
    H   H68   0.025362  0.715936  0.414283  0.112915
    H   H69   0.060323  0.653104  0.438149  0.107882
    H   H70   0.977242  0.653798  0.430199  0.106281
    C   C147  0.317085  0.018458  0.436039  -0.428267
    H   H71   0.284064  0.025362  0.414283  0.112918
    H   H72   0.346896  0.060323  0.438149  0.107889
    H   H73   0.346202  0.977242  0.430199  0.106275
    C   C148  0.981542  0.317085  0.436039  -0.428272
    H   H74   0.974638  0.284064  0.414283  0.112916
    H   H75   0.939677  0.346896  0.438149  0.107891
    H   H76   0.022758  0.346202  0.430199  0.106275
    C   C149  0.682915  0.018458  0.563961  -0.428268
    H   H77   0.715936  0.025362  0.585717  0.112918
    H   H78   0.653104  0.060323  0.561851  0.107889
    H   H79   0.653798  0.977242  0.569801  0.106273
    C   C150  0.018457  0.317085  0.563961  -0.428273
    H   H80   0.025362  0.284064  0.585717  0.112916
    H   H81   0.060323  0.346896  0.561851  0.107883
    H   H82   0.977242  0.346202  0.569801  0.106282
    C   C151  0.317085  0.981542  0.563961  -0.428270
    H   H83   0.284064  0.974638  0.585717  0.112919
    H   H84   0.346896  0.939677  0.561851  0.107889
    H   H85   0.346202  0.022758  0.569801  0.106274
    C   C152  0.981542  0.682915  0.563961  -0.428270
    H   H86   0.974638  0.715936  0.585717  0.112915
    H   H87   0.939677  0.653104  0.561851  0.107890
    H   H88   0.022758  0.653798  0.569801  0.106273
    C   C153  0.182915  0.481542  0.936039  -0.428270
    H   H89   0.215936  0.474638  0.914283  0.112921
    H   H90   0.153104  0.439677  0.938149  0.107888
    H   H91   0.153798  0.522758  0.930199  0.106270
    C   C154  0.518457  0.182915  0.936039  -0.428268
    H   H92   0.525362  0.215936  0.914283  0.112918
    H   H93   0.560323  0.153104  0.938149  0.107880
    H   H94   0.477242  0.153798  0.930199  0.106277
    C   C155  0.817085  0.518458  0.936039  -0.428274
    H   H95   0.784064  0.525362  0.914283  0.112923
    H   H96   0.846896  0.560323  0.938149  0.107885
    H   H97   0.846202  0.477242  0.930199  0.106275
    C   C156  0.481542  0.817085  0.936039  -0.428271
    H   H98   0.474638  0.784064  0.914283  0.112919
    H   H99   0.439677  0.846896  0.938149  0.107887
    H   H100  0.522758  0.846202  0.930199  0.106274
    C   C157  0.182915  0.518458  0.063961  -0.428271
    H   H101  0.215936  0.525362  0.085717  0.112921
    H   H102  0.153104  0.560323  0.061851  0.107885
    H   H103  0.153798  0.477242  0.069801  0.106273
    C   C158  0.518457  0.817085  0.063961  -0.428259
    H   H104  0.525362  0.784064  0.085717  0.112913
    H   H105  0.560323  0.846896  0.061852  0.107881
    H   H106  0.477242  0.846202  0.069801  0.106276
    C   C159  0.817085  0.481542  0.063961  -0.428273
    H   H107  0.784064  0.474638  0.085717  0.112921
    H   H108  0.846896  0.439677  0.061851  0.107890
    H   H109  0.846202  0.522758  0.069801  0.106273
    C   C160  0.481542  0.182915  0.063961  -0.428288
    H   H110  0.474638  0.215937  0.085717  0.112919
    H   H111  0.439676  0.153104  0.061851  0.107891
    H   H112  0.522758  0.153798  0.069801  0.106279
