# Generated by REPEAT Assigner based on pymatgen
data_DB0-m2_o1_o2_f0_pcu.sym.17
_audit_creation_date              2022-05-24
_audit_creation_method            REPEAT_Assigner
_cell_length_a                    10.857982
_cell_length_b                    9.400567
_cell_length_c                    15.129334
_cell_angle_alpha                 90.000000
_cell_angle_beta                  90.005957
_cell_angle_gamma                 90.000000
_cell_volume                      1544.269022
_symmetry_space_group_name_H-M    P1
_symmetry_Int_Tables_number       1
loop_
    _symmetry_equiv_pos_site_id
    _symmetry_equiv_pos_as_xyz
    1  x,y,z
loop_
    _atom_site_type_symbol
    _atom_site_label
    _atom_site_fract_x
    _atom_site_fract_y
    _atom_site_fract_z
    _atom_type_partial_charge
    O   O1   0.323718  0.622412  0.496787  -0.557367
    O   O2   0.681709  0.378882  0.496829  -0.596344
    O   O3   0.681674  0.623160  0.496369  -0.558423
    O   O4   0.323798  0.378246  0.493552  -0.610572
    N   N1   0.502144  0.855670  0.500827  0.002202
    N   N2   0.503447  0.145854  0.497533  -0.023729
    C   C1   0.265707  0.500291  0.498217  0.693899
    C   C2   0.739444  0.501031  0.499459  0.658397
    O   O5   0.506274  0.624762  0.370806  -0.586265
    O   O6   0.503829  0.377936  0.626553  -0.529996
    O   O7   0.506865  0.620868  0.627713  -0.538228
    O   O8   0.509022  0.380016  0.369714  -0.606509
    C   C3   0.504962  0.502952  0.328576  0.846146
    C   C4   0.498362  0.498894  0.669153  0.574849
    Cu  Cu1  0.503207  0.643024  0.498572  0.827822
    Cu  Cu2  0.502430  0.358637  0.498355  0.872683
    H   H1   0.349336  0.129360  0.413508  0.170606
    H   H2   0.640715  0.872550  0.598356  0.082258
    H   H3   0.645381  0.132575  0.592529  0.101091
    H   H4   0.350537  0.869347  0.413990  0.073796
    C   C5   0.417939  0.073393  0.451702  -0.077520
    C   C6   0.579160  0.928165  0.553961  -0.014172
    C   C7   0.581154  0.074809  0.551344  0.035453
    C   C8   0.418210  0.926809  0.452334  0.023097
    C   C9   0.065532  0.373750  0.498305  -0.047061
    C   C10  0.938706  0.628011  0.500361  -0.041849
    C   C11  0.938583  0.373977  0.498115  -0.122879
    C   C12  0.065745  0.627798  0.499806  -0.161231
    C   C13  0.570246  0.604903  0.092693  -0.194284
    C   C14  0.534301  0.387274  0.906824  -0.125709
    C   C15  0.459933  0.624871  0.903622  -0.183036
    C   C16  0.429988  0.410566  0.092968  -0.192089
    H   H5   0.627706  0.677722  0.055762  0.147927
    H   H6   0.565244  0.296016  0.944253  0.127450
    H   H7   0.428661  0.717876  0.939013  0.148133
    H   H8   0.371053  0.338495  0.056627  0.148780
    C   C17  0.577822  0.599163  0.183948  0.105651
    C   C18  0.532238  0.381083  0.816010  -0.035606
    C   C19  0.450772  0.619297  0.812507  -0.010218
    C   C20  0.428134  0.411118  0.184353  0.085893
    C   C21  0.504299  0.504005  0.231089  -0.269469
    C   C22  0.491590  0.498462  0.766999  -0.068125
    H   H9   0.113779  0.273272  0.499260  0.083857
    H   H10  0.891000  0.728621  0.502683  0.087087
    H   H11  0.891035  0.273111  0.498228  0.109728
    H   H12  0.113997  0.728503  0.501582  0.131875
    C   C23  0.498731  0.509088  0.047215  0.131221
    C   C24  0.499127  0.508140  0.950665  0.094425
    C   C25  0.874428  0.501091  0.499164  -0.035619
    C   C26  0.130083  0.500544  0.498441  -0.024203
    C   C27  0.670184  0.689603  0.227468  0.570013
    O   O9   0.698288  0.803462  0.194535  -0.509111
    O   O10  0.734165  0.641147  0.301319  -0.516696
    H   H13  0.796527  0.714737  0.320756  0.380968
    C   C28  0.573344  0.246534  0.776664  0.719070
    O   O11  0.498904  0.167471  0.741610  -0.489788
    O   O12  0.693181  0.199456  0.790890  -0.616350
    H   H14  0.704694  0.101480  0.764351  0.421428
    C   C29  0.386916  0.737885  0.768341  0.641604
    O   O13  0.397611  0.858460  0.796943  -0.502131
    O   O14  0.303244  0.711449  0.700541  -0.555509
    H   H15  0.264696  0.803703  0.679961  0.387229
    C   C30  0.337940  0.318697  0.228641  0.611437
    O   O15  0.307189  0.206780  0.194339  -0.518813
    O   O16  0.276787  0.365174  0.304062  -0.568124
    H   H16  0.213810  0.292058  0.323005  0.390954
