# Generated by REPEAT Assigner based on pymatgen
data_DB0-m2_o1_o2_f0_nbo.sym.80
_audit_creation_date              2022-05-24
_audit_creation_method            REPEAT_Assigner
_cell_length_a                    21.517268
_cell_length_b                    21.505763
_cell_length_c                    30.028627
_cell_angle_alpha                 90.000000
_cell_angle_beta                  90.000000
_cell_angle_gamma                 90.000000
_cell_volume                      13895.604768
_symmetry_space_group_name_H-M    P1
_symmetry_Int_Tables_number       1
loop_
    _symmetry_equiv_pos_site_id
    _symmetry_equiv_pos_as_xyz
    1  x,y,z
loop_
    _atom_site_type_symbol
    _atom_site_label
    _atom_site_fract_x
    _atom_site_fract_y
    _atom_site_fract_z
    _atom_type_partial_charge
    O   O1    0.088698  0.448664  0.487908  -0.574412
    O   O2    0.449049  0.911535  0.486915  -0.636161
    O   O3    0.911302  0.551335  0.487908  -0.574432
    O   O4    0.550952  0.088464  0.486915  -0.636166
    O   O5    0.088698  0.551335  0.512092  -0.574428
    O   O6    0.449049  0.088464  0.513085  -0.636165
    O   O7    0.911302  0.448664  0.512092  -0.574421
    O   O8    0.550952  0.911535  0.513085  -0.636163
    O   O9    0.588698  0.948664  0.987908  -0.574425
    O   O10   0.949049  0.411535  0.986915  -0.636150
    O   O11   0.411302  0.051335  0.987908  -0.574432
    O   O12   0.050952  0.588464  0.986915  -0.636168
    O   O13   0.588698  0.051335  0.012092  -0.574423
    O   O14   0.949049  0.588464  0.013085  -0.636148
    O   O15   0.411302  0.948664  0.012092  -0.574419
    O   O16   0.050952  0.411535  0.013085  -0.636168
    C   C1    0.117868  0.500000  0.500000  0.733750
    C   C2    0.500000  0.882448  0.500000  0.858105
    C   C3    0.882133  0.500000  0.500000  0.733760
    C   C4    0.500000  0.117551  0.500000  0.858077
    C   C5    0.617868  0.000000  0.000000  0.733799
    C   C6    0.000000  0.382449  0.000000  0.858152
    C   C7    0.382133  0.000000  0.000000  0.733785
    C   C8    0.000000  0.617551  0.000000  0.858152
    O   O17   0.983023  0.448710  0.436491  -0.581374
    O   O18   0.449063  0.018244  0.436679  -0.600015
    O   O19   0.016978  0.551290  0.436491  -0.581375
    O   O20   0.550937  0.981756  0.436679  -0.600017
    O   O21   0.983023  0.551290  0.563510  -0.581419
    O   O22   0.449063  0.981756  0.563322  -0.600024
    O   O23   0.016978  0.448710  0.563510  -0.581403
    O   O24   0.550938  0.018244  0.563322  -0.600025
    O   O25   0.483023  0.948710  0.936491  -0.581388
    O   O26   0.949063  0.518244  0.936679  -0.600012
    O   O27   0.516978  0.051290  0.936491  -0.581414
    O   O28   0.050937  0.481756  0.936679  -0.600021
    O   O29   0.483023  0.051290  0.063510  -0.581401
    O   O30   0.949063  0.481756  0.063322  -0.600001
    O   O31   0.516978  0.948710  0.063510  -0.581386
    O   O32   0.050937  0.518244  0.063322  -0.600015
    C   C9    0.282277  0.555596  0.501178  0.361608
    C   C10   0.533055  0.718273  0.532166  0.533796
    C   C11   0.717724  0.444404  0.501178  0.361597
    C   C12   0.466946  0.281726  0.532166  0.533721
    C   C13   0.282277  0.444404  0.498822  0.361618
    C   C14   0.533055  0.281726  0.467835  0.533769
    C   C15   0.717724  0.555596  0.498822  0.361634
    C   C16   0.466946  0.718273  0.467835  0.533807
    C   C17   0.782277  0.055596  0.001178  0.361651
    C   C18   0.033054  0.218273  0.032166  0.533771
    C   C19   0.217724  0.944404  0.001178  0.361641
    C   C20   0.966946  0.781726  0.032166  0.533759
    C   C21   0.782277  0.944404  0.998822  0.361657
    C   C22   0.033054  0.781726  0.967835  0.533808
    C   C23   0.217724  0.055596  0.998822  0.361656
    C   C24   0.966946  0.218273  0.967835  0.533827
    C   C25   0.000000  0.500000  0.415557  0.619524
    C   C26   0.500000  0.000000  0.415751  0.675480
    C   C27   0.000000  0.500000  0.584444  0.619605
    C   C28   0.500000  0.000000  0.584250  0.675495
    C   C29   0.500000  0.000000  0.915557  0.619509
    C   C30   0.000000  0.500000  0.915751  0.675487
    C   C31   0.500000  0.000000  0.084444  0.619553
    C   C32   0.000000  0.500000  0.084250  0.675550
    Cu  Cu1   0.000000  0.439248  0.500000  0.928248
    Cu  Cu2   0.439499  0.000000  0.500000  0.969468
    Cu  Cu3   0.000000  0.560752  0.500000  0.928288
    Cu  Cu4   0.560502  0.000000  0.500000  0.969491
    Cu  Cu5   0.500000  0.939248  0.000000  0.928251
    Cu  Cu6   0.939499  0.500000  0.000000  0.969600
    Cu  Cu7   0.500000  0.060752  0.000000  0.928267
    Cu  Cu8   0.060502  0.500000  0.000000  0.969534
    C   C33   0.185913  0.500000  0.500000  -0.067409
    C   C34   0.500000  0.814551  0.500000  -0.093059
    C   C35   0.814088  0.500000  0.500000  -0.067399
    C   C36   0.500000  0.185448  0.500000  -0.093073
    C   C37   0.685913  0.000000  0.000000  -0.067447
    C   C38   0.000000  0.314551  0.000000  -0.093072
    C   C39   0.314088  0.000000  0.000000  -0.067423
    C   C40   0.000000  0.685448  0.000000  -0.093099
    C   C41   0.218199  0.555500  0.500882  -0.215081
    C   C42   0.534411  0.782427  0.531081  -0.279648
    C   C43   0.781802  0.444499  0.500882  -0.215096
    C   C44   0.465590  0.217572  0.531081  -0.279595
    C   C45   0.218199  0.444499  0.499119  -0.215100
    C   C46   0.534411  0.217572  0.468920  -0.279594
    C   C47   0.781802  0.555500  0.499119  -0.215116
    C   C48   0.465590  0.782427  0.468920  -0.279628
    C   C49   0.718199  0.055500  0.000882  -0.215087
    C   C50   0.034411  0.282427  0.031081  -0.279623
    C   C51   0.281802  0.944499  0.000882  -0.215107
    C   C52   0.965589  0.717572  0.031081  -0.279603
    C   C53   0.718199  0.944499  0.999119  -0.215106
    C   C54   0.034411  0.717572  0.968920  -0.279601
    C   C55   0.281802  0.055500  0.999119  -0.215117
    C   C56   0.965589  0.282427  0.968920  -0.279624
    C   C57   0.022045  0.550862  0.297606  -0.135975
    C   C58   0.550007  0.976122  0.297807  -0.140386
    C   C59   0.977956  0.449137  0.297606  -0.135987
    C   C60   0.449994  0.023878  0.297807  -0.140376
    C   C61   0.022045  0.449137  0.702394  -0.135970
    C   C62   0.550007  0.023878  0.702193  -0.140353
    C   C63   0.977956  0.550862  0.702394  -0.135961
    C   C64   0.449994  0.976121  0.702193  -0.140351
    C   C65   0.522045  0.050862  0.797606  -0.136003
    C   C66   0.050007  0.476121  0.797807  -0.140394
    C   C67   0.477956  0.949137  0.797606  -0.135985
    C   C68   0.949994  0.523878  0.797807  -0.140390
    C   C69   0.522045  0.949137  0.202394  -0.135969
    C   C70   0.050007  0.523878  0.202193  -0.140382
    C   C71   0.477956  0.050862  0.202394  -0.135977
    C   C72   0.949994  0.476122  0.202193  -0.140374
    H   H1    0.038434  0.591641  0.280174  0.115282
    H   H2    0.590142  0.958254  0.280375  0.110881
    H   H3    0.961566  0.408359  0.280174  0.115283
    H   H4    0.409859  0.041746  0.280375  0.110876
    H   H5    0.038435  0.408359  0.719827  0.115273
    H   H6    0.590142  0.041745  0.719625  0.110874
    H   H7    0.961566  0.591641  0.719827  0.115272
    H   H8    0.409859  0.958254  0.719625  0.110866
    H   H9    0.538435  0.091641  0.780174  0.115286
    H   H10   0.090142  0.458254  0.780375  0.110888
    H   H11   0.461566  0.908359  0.780174  0.115288
    H   H12   0.909859  0.541745  0.780375  0.110879
    H   H13   0.538435  0.908359  0.219827  0.115278
    H   H14   0.090142  0.541745  0.219625  0.110876
    H   H15   0.461566  0.091641  0.219827  0.115275
    H   H16   0.909859  0.458254  0.219625  0.110872
    C   C73   0.021805  0.551002  0.343506  -0.127066
    C   C74   0.550159  0.976365  0.343706  -0.110110
    C   C75   0.978196  0.448997  0.343506  -0.127052
    C   C76   0.449841  0.023634  0.343706  -0.110114
    C   C77   0.021805  0.448997  0.656495  -0.127066
    C   C78   0.550159  0.023634  0.656295  -0.110123
    C   C79   0.978196  0.551002  0.656495  -0.127065
    C   C80   0.449841  0.976365  0.656295  -0.110125
    C   C81   0.521805  0.051002  0.843506  -0.127064
    C   C82   0.050159  0.476365  0.843706  -0.110117
    C   C83   0.478196  0.948997  0.843506  -0.127073
    C   C84   0.949841  0.523634  0.843706  -0.110110
    C   C85   0.521805  0.948997  0.156495  -0.127067
    C   C86   0.050159  0.523634  0.156295  -0.110090
    C   C87   0.478196  0.051002  0.156495  -0.127055
    C   C88   0.949841  0.476365  0.156295  -0.110100
    H   H17   0.039021  0.591550  0.360793  0.125827
    H   H18   0.590027  0.957668  0.360994  0.128621
    H   H19   0.960980  0.408450  0.360793  0.125830
    H   H20   0.409973  0.042332  0.360994  0.128620
    H   H21   0.039021  0.408450  0.639208  0.125837
    H   H22   0.590027  0.042331  0.639007  0.128625
    H   H23   0.960980  0.591550  0.639208  0.125835
    H   H24   0.409973  0.957668  0.639007  0.128630
    H   H25   0.539021  0.091550  0.860793  0.125835
    H   H26   0.090027  0.457668  0.860994  0.128619
    H   H27   0.460980  0.908450  0.860793  0.125834
    H   H28   0.909973  0.542331  0.860994  0.128619
    H   H29   0.539021  0.908450  0.139208  0.125835
    H   H30   0.090027  0.542331  0.139007  0.128613
    H   H31   0.460980  0.091550  0.139208  0.125831
    H   H32   0.909973  0.457668  0.139007  0.128618
    C   C89   0.000000  0.500000  0.366740  0.024790
    C   C90   0.500000  0.000000  0.366938  -0.006232
    C   C91   0.000000  0.500000  0.633261  0.024765
    C   C92   0.500000  0.000000  0.633063  -0.006238
    C   C93   0.500000  0.000000  0.866740  0.024827
    C   C94   0.000000  0.500000  0.866938  -0.006205
    C   C95   0.500000  0.000000  0.133261  0.024784
    C   C96   0.000000  0.500000  0.133063  -0.006275
    H   H33   0.193706  0.599355  0.501407  0.131851
    H   H34   0.561787  0.807367  0.555406  0.179757
    H   H35   0.806295  0.400644  0.501407  0.131866
    H   H36   0.438214  0.192633  0.555406  0.179753
    H   H37   0.193706  0.400644  0.498593  0.131865
    H   H38   0.561787  0.192633  0.444595  0.179743
    H   H39   0.806295  0.599355  0.498593  0.131867
    H   H40   0.438214  0.807367  0.444595  0.179747
    H   H41   0.693706  0.099355  0.001407  0.131853
    H   H42   0.061787  0.307367  0.055406  0.179756
    H   H43   0.306295  0.900644  0.001407  0.131867
    H   H44   0.938214  0.692633  0.055406  0.179753
    H   H45   0.693706  0.900644  0.998593  0.131868
    H   H46   0.061787  0.692633  0.944595  0.179742
    H   H47   0.306295  0.099355  0.998593  0.131868
    H   H48   0.938214  0.307367  0.944595  0.179749
    C   C97   0.000000  0.500000  0.274345  0.089387
    C   C98   0.500000  0.000000  0.274546  0.096754
    C   C99   0.000000  0.500000  0.725655  0.089398
    C   C100  0.500000  0.000000  0.725454  0.096734
    C   C101  0.500000  0.000000  0.774345  0.089406
    C   C102  0.000000  0.500000  0.774546  0.096740
    C   C103  0.500000  0.000000  0.225655  0.089395
    C   C104  0.000000  0.500000  0.225454  0.096751
    O   O33   0.517421  0.411278  0.536706  -0.497192
    O   O34   0.411335  0.482466  0.536685  -0.541861
    O   O35   0.482580  0.588721  0.536706  -0.497179
    O   O36   0.588666  0.517534  0.536685  -0.541861
    O   O37   0.517421  0.588721  0.463295  -0.497193
    O   O38   0.411335  0.517534  0.463316  -0.541859
    O   O39   0.482580  0.411278  0.463295  -0.497199
    O   O40   0.588666  0.482466  0.463316  -0.541859
    O   O41   0.017421  0.911278  0.036706  -0.497202
    O   O42   0.911335  0.982466  0.036685  -0.541888
    O   O43   0.982580  0.088721  0.036706  -0.497206
    O   O44   0.088666  0.017534  0.036685  -0.541897
    O   O45   0.017421  0.088721  0.963295  -0.497220
    O   O46   0.911335  0.017534  0.963316  -0.541897
    O   O47   0.982580  0.911278  0.963295  -0.497208
    O   O48   0.088666  0.982466  0.963316  -0.541889
    C   C105  0.500000  0.382200  0.500000  0.576175
    C   C106  0.382344  0.500000  0.500000  0.802918
    C   C107  0.500000  0.617799  0.500000  0.576151
    C   C108  0.617657  0.500000  0.500000  0.802934
    C   C109  0.000000  0.882201  0.000000  0.576207
    C   C110  0.882344  0.000000  0.000000  0.802964
    C   C111  0.000000  0.117799  0.000000  0.576178
    C   C112  0.117657  0.000000  0.000000  0.802973
    C   C113  0.314490  0.500000  0.500000  -0.308561
    C   C114  0.500001  0.685848  0.500000  -0.365185
    C   C115  0.685510  0.500000  0.500000  -0.308566
    C   C116  0.500000  0.314152  0.500000  -0.365146
    C   C117  0.814490  0.000000  0.000000  -0.308600
    C   C118  0.000000  0.185848  0.000000  -0.365224
    C   C119  0.185510  0.000000  0.000000  -0.308595
    C   C120  0.000000  0.814152  0.000000  -0.365228
    Cu  Cu9   0.500000  0.500000  0.543491  0.867671
    Cu  Cu10  0.500000  0.500000  0.456510  0.867699
    Cu  Cu11  0.000000  0.000000  0.043491  0.867655
    Cu  Cu12  0.000000  0.000000  0.956510  0.867687
    N   N1    0.314437  0.612717  0.502077  -0.553949
    C   C121  0.331353  0.631023  0.543342  0.758199
    O   O49   0.333001  0.593522  0.573765  -0.576607
    C   C122  0.347374  0.697345  0.552269  -0.515213
    H   H49   0.295822  0.647751  0.482940  0.287863
    H   H50   0.345552  0.725062  0.521171  0.086312
    H   H51   0.394943  0.699901  0.566295  0.185192
    H   H52   0.314008  0.716836  0.576695  0.151106
    N   N2    0.569634  0.686479  0.563933  -0.687643
    C   C123  0.547136  0.687588  0.605901  0.771068
    O   O50   0.506779  0.724660  0.616259  -0.586649
    C   C124  0.570531  0.642569  0.639767  -0.475214
    H   H53   0.591280  0.645946  0.554591  0.314414
    H   H54   0.607637  0.612816  0.625536  0.104634
    H   H55   0.531569  0.612781  0.651130  0.146120
    H   H56   0.589546  0.668573  0.668595  0.141080
    N   N3    0.685563  0.387282  0.502077  -0.553942
    C   C125  0.668647  0.368976  0.543342  0.758204
    O   O51   0.667000  0.406478  0.573765  -0.576615
    C   C126  0.652627  0.302654  0.552269  -0.515226
    H   H57   0.704179  0.352248  0.482940  0.287852
    H   H58   0.654448  0.274938  0.521171  0.086318
    H   H59   0.605057  0.300098  0.566296  0.185197
    H   H60   0.685993  0.283163  0.576695  0.151111
    N   N4    0.430367  0.313520  0.563933  -0.687637
    C   C127  0.452865  0.312411  0.605901  0.771076
    O   O52   0.493222  0.275340  0.616259  -0.586645
    C   C128  0.429470  0.357430  0.639767  -0.475226
    H   H61   0.408721  0.354054  0.554591  0.314410
    H   H62   0.392364  0.387183  0.625536  0.104632
    H   H63   0.468432  0.387219  0.651130  0.146123
    H   H64   0.410455  0.331427  0.668595  0.141083
    N   N5    0.314437  0.387282  0.497923  -0.553947
    C   C129  0.331353  0.368976  0.456659  0.758258
    O   O53   0.333001  0.406478  0.426236  -0.576653
    C   C130  0.347374  0.302654  0.447732  -0.515264
    H   H65   0.295822  0.352248  0.517060  0.287845
    H   H66   0.345552  0.274938  0.478830  0.086330
    H   H67   0.394943  0.300098  0.433705  0.185214
    H   H68   0.314008  0.283163  0.423306  0.151112
    N   N6    0.569634  0.313520  0.436068  -0.687651
    C   C131  0.547136  0.312411  0.394099  0.771095
    O   O54   0.506779  0.275340  0.383742  -0.586652
    C   C132  0.570531  0.357430  0.360234  -0.475275
    H   H69   0.591280  0.354054  0.445409  0.314406
    H   H70   0.607637  0.387183  0.374464  0.104656
    H   H71   0.531569  0.387219  0.348871  0.146132
    H   H72   0.589546  0.331427  0.331406  0.141095
    N   N7    0.685563  0.612717  0.497923  -0.553967
    C   C133  0.668647  0.631023  0.456659  0.758284
    O   O55   0.667000  0.593522  0.426236  -0.576654
    C   C134  0.652627  0.697345  0.447732  -0.515289
    H   H73   0.704179  0.647751  0.517060  0.287851
    H   H74   0.654448  0.725062  0.478830  0.086335
    H   H75   0.605057  0.699901  0.433705  0.185210
    H   H76   0.685992  0.716836  0.423306  0.151122
    N   N8    0.430367  0.686479  0.436068  -0.687652
    C   C135  0.452865  0.687588  0.394099  0.771072
    O   O56   0.493222  0.724660  0.383741  -0.586650
    C   C136  0.429470  0.642569  0.360234  -0.475243
    H   H77   0.408721  0.645946  0.445409  0.314409
    H   H78   0.392364  0.612816  0.374464  0.104647
    H   H79   0.468432  0.612781  0.348871  0.146127
    H   H80   0.410455  0.668572  0.331406  0.141089
    N   N9    0.814437  0.112717  0.002077  -0.553975
    C   C137  0.831353  0.131023  0.043342  0.758201
    O   O57   0.833001  0.093522  0.073765  -0.576616
    C   C138  0.847374  0.197345  0.052269  -0.515222
    H   H81   0.795822  0.147751  0.982940  0.287870
    H   H82   0.845552  0.225062  0.021171  0.086311
    H   H83   0.894943  0.199901  0.066295  0.185203
    H   H84   0.814008  0.216836  0.076695  0.151111
    N   N10   0.069634  0.186479  0.063933  -0.687636
    C   C139  0.047136  0.187588  0.105901  0.771070
    O   O58   0.006779  0.224660  0.116259  -0.586649
    C   C140  0.070531  0.142569  0.139767  -0.475239
    H   H85   0.091280  0.145946  0.054591  0.314423
    H   H86   0.107637  0.112816  0.125536  0.104639
    H   H87   0.031569  0.112781  0.151130  0.146125
    H   H88   0.089546  0.168572  0.168595  0.141089
    N   N11   0.185563  0.887282  0.002077  -0.553968
    C   C141  0.168647  0.868976  0.043342  0.758211
    O   O59   0.167000  0.906478  0.073765  -0.576625
    C   C142  0.152627  0.802654  0.052269  -0.515225
    H   H89   0.204179  0.852248  0.982940  0.287860
    H   H90   0.154448  0.774938  0.021171  0.086317
    H   H91   0.105057  0.800098  0.066296  0.185198
    H   H92   0.185993  0.783163  0.076695  0.151114
    N   N12   0.930367  0.813520  0.063933  -0.687639
    C   C143  0.952865  0.812411  0.105901  0.771079
    O   O60   0.993222  0.775340  0.116259  -0.586642
    C   C144  0.929469  0.857430  0.139767  -0.475260
    H   H93   0.908720  0.854054  0.054591  0.314417
    H   H94   0.892364  0.887183  0.125536  0.104647
    H   H95   0.968432  0.887219  0.151130  0.146122
    H   H96   0.910455  0.831427  0.168595  0.141095
    N   N13   0.814437  0.887282  0.997923  -0.553973
    C   C145  0.831353  0.868976  0.956659  0.758266
    O   O61   0.833001  0.906478  0.926236  -0.576662
    C   C146  0.847374  0.802654  0.947732  -0.515270
    H   H97   0.795822  0.852248  0.017060  0.287856
    H   H98   0.845552  0.774938  0.978830  0.086326
    H   H99   0.894943  0.800098  0.933705  0.185222
    H   H100  0.814008  0.783163  0.923306  0.151116
    N   N14   0.069634  0.813521  0.936068  -0.687675
    C   C147  0.047136  0.812411  0.894099  0.771107
    O   O62   0.006779  0.775340  0.883742  -0.586651
    C   C148  0.070531  0.857430  0.860234  -0.475301
    H   H101  0.091280  0.854054  0.945409  0.314427
    H   H102  0.107637  0.887184  0.874464  0.104662
    H   H103  0.031569  0.887219  0.848871  0.146137
    H   H104  0.089546  0.831427  0.831406  0.141100
    N   N15   0.185563  0.112717  0.997923  -0.553983
    C   C149  0.168647  0.131023  0.956659  0.758292
    O   O63   0.167000  0.093522  0.926236  -0.576664
    C   C150  0.152627  0.197345  0.947732  -0.515302
    H   H105  0.204179  0.147751  0.017060  0.287855
    H   H106  0.154448  0.225062  0.978830  0.086335
    H   H107  0.105057  0.199901  0.933705  0.185224
    H   H108  0.185992  0.216836  0.923306  0.151127
    N   N16   0.930367  0.186479  0.936068  -0.687666
    C   C151  0.952865  0.187588  0.894099  0.771094
    O   O64   0.993222  0.224660  0.883742  -0.586654
    C   C152  0.929470  0.142569  0.860234  -0.475284
    H   H109  0.908720  0.145946  0.945409  0.314417
    H   H110  0.892364  0.112816  0.874464  0.104661
    H   H111  0.968432  0.112781  0.848871  0.146137
    H   H112  0.910455  0.168573  0.831406  0.141097
