# Generated by REPEAT Assigner based on pymatgen
data_DB0-m2_o1_o3_f0_nbo.sym.88_sqe
_audit_creation_date              2022-05-24
_audit_creation_method            REPEAT_Assigner
_cell_length_a                    21.464651
_cell_length_b                    21.464651
_cell_length_c                    38.809424
_cell_angle_alpha                 90.000000
_cell_angle_beta                  90.000000
_cell_angle_gamma                 90.000000
_cell_volume                      17880.714539
_symmetry_space_group_name_H-M    P1
_symmetry_Int_Tables_number       1
loop_
    _symmetry_equiv_pos_site_id
    _symmetry_equiv_pos_as_xyz
    1  x,y,z
loop_
    _atom_site_type_symbol
    _atom_site_label
    _atom_site_fract_x
    _atom_site_fract_y
    _atom_site_fract_z
    _atom_type_partial_charge
    O   O1    0.588873  0.051503  0.490671  -0.511293
    O   O2    0.948497  0.588873  0.490671  -0.511279
    O   O3    0.411127  0.948497  0.490671  -0.511288
    O   O4    0.051503  0.411127  0.490671  -0.511301
    O   O5    0.588873  0.948497  0.509329  -0.511281
    O   O6    0.948497  0.411127  0.509329  -0.511286
    O   O7    0.411127  0.051503  0.509329  -0.511301
    O   O8    0.051503  0.588873  0.509329  -0.511294
    O   O9    0.088873  0.551502  0.990671  -0.511237
    O   O10   0.448497  0.088873  0.990671  -0.511215
    O   O11   0.911127  0.448497  0.990671  -0.511176
    O   O12   0.551503  0.911127  0.990671  -0.511217
    O   O13   0.088873  0.448497  0.009329  -0.511187
    O   O14   0.448497  0.911127  0.009329  -0.511218
    O   O15   0.911127  0.551503  0.009329  -0.511223
    O   O16   0.551503  0.088873  0.009329  -0.511220
    C   C1    0.617958  0.000000  0.500000  0.531402
    C   C2    0.000000  0.617958  0.500000  0.531404
    C   C3    0.382042  0.000000  0.500000  0.531414
    C   C4    0.000000  0.382042  0.500000  0.531416
    C   C5    0.117958  0.500000  0.000000  0.531068
    C   C6    0.500000  0.117958  0.000000  0.531062
    C   C7    0.882042  0.500000  0.000000  0.531081
    C   C8    0.500000  0.882042  0.000000  0.531094
    O   O17   0.517168  0.051310  0.549233  -0.603359
    O   O18   0.948690  0.517168  0.549233  -0.603344
    O   O19   0.482832  0.948690  0.549233  -0.603344
    O   O20   0.051310  0.482832  0.549233  -0.603362
    O   O21   0.517168  0.948690  0.450767  -0.603368
    O   O22   0.948690  0.482832  0.450767  -0.603368
    O   O23   0.482832  0.051310  0.450767  -0.603385
    O   O24   0.051310  0.517168  0.450767  -0.603385
    O   O25   0.017168  0.551310  0.049233  -0.603390
    O   O26   0.448690  0.017168  0.049233  -0.603371
    O   O27   0.982832  0.448689  0.049233  -0.603329
    O   O28   0.551310  0.982832  0.049233  -0.603374
    O   O29   0.017168  0.448689  0.950767  -0.603322
    O   O30   0.448690  0.982832  0.950767  -0.603370
    O   O31   0.982832  0.551310  0.950767  -0.603400
    O   O32   0.551310  0.017168  0.950767  -0.603365
    C   C9    0.500000  0.000000  0.565548  0.713236
    C   C10   0.000000  0.500000  0.565548  0.713238
    C   C11   0.500000  0.000000  0.434452  0.713214
    C   C12   0.000000  0.500000  0.434452  0.713214
    C   C13   0.000000  0.500000  0.065548  0.713370
    C   C14   0.500000  0.000000  0.065548  0.713393
    C   C15   0.000000  0.500000  0.934452  0.713338
    C   C16   0.500000  0.000000  0.934452  0.713353
    Cu  Cu1   0.500000  0.060891  0.500000  0.990684
    Cu  Cu2   0.939109  0.500000  0.500000  0.990678
    Cu  Cu3   0.500000  0.939109  0.500000  0.990672
    Cu  Cu4   0.060891  0.500000  0.500000  0.990678
    Cu  Cu5   0.000000  0.560891  0.000000  0.990589
    Cu  Cu6   0.439109  0.000000  0.000000  0.990656
    Cu  Cu7   0.000000  0.439109  0.000000  0.990660
    Cu  Cu8   0.560891  0.000000  0.000000  0.990643
    C   C17   0.552343  0.980439  0.877973  0.036088
    C   C18   0.019561  0.552342  0.877973  0.036192
    C   C19   0.447657  0.019561  0.877973  0.036172
    C   C20   0.980439  0.447657  0.877973  0.036080
    C   C21   0.552343  0.019561  0.122027  0.036295
    C   C22   0.019561  0.447657  0.122027  0.036285
    C   C23   0.447657  0.980439  0.122027  0.036299
    C   C24   0.980439  0.552342  0.122027  0.036302
    C   C25   0.052343  0.480439  0.377973  0.036222
    C   C26   0.519561  0.052343  0.377973  0.036213
    C   C27   0.947657  0.519561  0.377973  0.036202
    C   C28   0.480439  0.947657  0.377973  0.036212
    C   C29   0.052343  0.519561  0.622027  0.036271
    C   C30   0.519561  0.947657  0.622027  0.036259
    C   C31   0.947657  0.480439  0.622027  0.036271
    C   C32   0.480439  0.052343  0.622027  0.036281
    C   C33   0.552852  0.983861  0.842484  -0.202221
    C   C34   0.016139  0.552852  0.842484  -0.202193
    C   C35   0.447148  0.016139  0.842484  -0.202164
    C   C36   0.983861  0.447148  0.842484  -0.202220
    C   C37   0.552852  0.016139  0.157516  -0.202188
    C   C38   0.016139  0.447148  0.157516  -0.202187
    C   C39   0.447148  0.983861  0.157516  -0.202188
    C   C40   0.983861  0.552852  0.157516  -0.202207
    C   C41   0.052852  0.483861  0.342484  -0.202174
    C   C42   0.516139  0.052852  0.342484  -0.202173
    C   C43   0.947148  0.516139  0.342484  -0.202163
    C   C44   0.483861  0.947148  0.342484  -0.202166
    C   C45   0.052852  0.516139  0.657516  -0.202173
    C   C46   0.516139  0.947148  0.657516  -0.202165
    C   C47   0.947148  0.483861  0.657516  -0.202170
    C   C48   0.483861  0.052852  0.657516  -0.202176
    H   H1    0.595404  0.971724  0.829329  0.103534
    H   H2    0.028276  0.595404  0.829329  0.103503
    H   H3    0.404595  0.028276  0.829329  0.103494
    H   H4    0.971724  0.404595  0.829329  0.103531
    H   H5    0.595404  0.028276  0.170671  0.103504
    H   H6    0.028276  0.404595  0.170671  0.103502
    H   H7    0.404595  0.971724  0.170671  0.103501
    H   H8    0.971724  0.595404  0.170671  0.103507
    H   H9    0.095404  0.471724  0.329329  0.103502
    H   H10   0.528276  0.095404  0.329329  0.103502
    H   H11   0.904595  0.528276  0.329329  0.103499
    H   H12   0.471724  0.904595  0.329329  0.103501
    H   H13   0.095404  0.528276  0.670671  0.103503
    H   H14   0.528276  0.904595  0.670671  0.103501
    H   H15   0.904595  0.471724  0.670671  0.103502
    H   H16   0.471724  0.095404  0.670671  0.103504
    C   C49   0.500000  0.000000  0.824234  0.117441
    C   C50   0.000000  0.500000  0.824234  0.117452
    C   C51   0.500000  0.000000  0.175766  0.117360
    C   C52   0.000000  0.500000  0.175766  0.117366
    C   C53   0.000000  0.500000  0.324234  0.117341
    C   C54   0.500000  0.000000  0.324234  0.117340
    C   C55   0.000000  0.500000  0.675766  0.117338
    C   C56   0.500000  0.000000  0.675766  0.117334
    C   C57   0.500000  0.000000  0.896399  -0.081884
    C   C58   0.000000  0.500000  0.896399  -0.081879
    C   C59   0.500000  0.000000  0.103601  -0.082104
    C   C60   0.000000  0.500000  0.103601  -0.082088
    C   C61   0.000000  0.500000  0.396399  -0.081906
    C   C62   0.500000  0.000000  0.396399  -0.081907
    C   C63   0.000000  0.500000  0.603601  -0.082011
    C   C64   0.500000  0.000000  0.603601  -0.082010
    C   C65   0.461357  0.039648  0.767751  -0.146476
    C   C66   0.960352  0.461357  0.767751  -0.146467
    C   C67   0.538643  0.960352  0.767751  -0.146469
    C   C68   0.039648  0.538643  0.767751  -0.146476
    C   C69   0.461357  0.960352  0.232249  -0.146459
    C   C70   0.960352  0.538643  0.232249  -0.146460
    C   C71   0.538643  0.039648  0.232249  -0.146468
    C   C72   0.039648  0.461357  0.232249  -0.146467
    C   C73   0.961357  0.539648  0.267751  -0.146479
    C   C74   0.460352  0.961357  0.267751  -0.146472
    C   C75   0.038643  0.460352  0.267751  -0.146470
    C   C76   0.539648  0.038643  0.267751  -0.146476
    C   C77   0.961357  0.460352  0.732249  -0.146450
    C   C78   0.460352  0.038643  0.732249  -0.146450
    C   C79   0.038643  0.539648  0.732249  -0.146454
    C   C80   0.539648  0.961357  0.732249  -0.146455
    H   H17   0.431566  0.072760  0.780626  0.125821
    H   H18   0.927240  0.431566  0.780626  0.125814
    H   H19   0.568434  0.927240  0.780626  0.125817
    H   H20   0.072760  0.568434  0.780626  0.125822
    H   H21   0.431566  0.927240  0.219374  0.125817
    H   H22   0.927240  0.568434  0.219374  0.125819
    H   H23   0.568434  0.072760  0.219374  0.125820
    H   H24   0.072760  0.431566  0.219374  0.125818
    H   H25   0.931566  0.572760  0.280626  0.125821
    H   H26   0.427240  0.931566  0.280626  0.125818
    H   H27   0.068434  0.427240  0.280626  0.125819
    H   H28   0.572760  0.068434  0.280626  0.125822
    H   H29   0.931566  0.427240  0.719374  0.125812
    H   H30   0.427240  0.068434  0.719374  0.125813
    H   H31   0.068434  0.572760  0.719374  0.125815
    H   H32   0.572760  0.931566  0.719374  0.125814
    C   C81   0.500000  0.000000  0.713933  0.084874
    C   C82   0.000000  0.500000  0.713933  0.084872
    C   C83   0.500000  0.000000  0.286067  0.084888
    C   C84   0.000000  0.500000  0.286067  0.084887
    C   C85   0.000000  0.500000  0.213933  0.084871
    C   C86   0.500000  0.000000  0.213933  0.084874
    C   C87   0.000000  0.500000  0.786067  0.084833
    C   C88   0.500000  0.000000  0.786067  0.084838
    C   C89   0.718108  0.948528  0.488320  -0.155929
    C   C90   0.051472  0.718108  0.488320  -0.155930
    C   C91   0.281892  0.051472  0.488320  -0.155932
    C   C92   0.948528  0.281892  0.488320  -0.155927
    C   C93   0.718108  0.051472  0.511680  -0.155851
    C   C94   0.051472  0.281892  0.511680  -0.155851
    C   C95   0.281892  0.948528  0.511680  -0.155854
    C   C96   0.948528  0.718108  0.511680  -0.155849
    C   C97   0.218108  0.448528  0.988320  -0.155989
    C   C98   0.551472  0.218108  0.988320  -0.155997
    C   C99   0.781892  0.551472  0.988320  -0.155831
    C   C100  0.448528  0.781892  0.988320  -0.155984
    C   C101  0.218108  0.551472  0.011680  -0.155992
    C   C102  0.551472  0.781892  0.011680  -0.155986
    C   C103  0.781892  0.448528  0.011680  -0.155933
    C   C104  0.448528  0.218108  0.011680  -0.155988
    H   H33   0.693188  0.908216  0.478908  0.112907
    H   H34   0.091784  0.693188  0.478908  0.112909
    H   H35   0.306812  0.091784  0.478908  0.112912
    H   H36   0.908216  0.306812  0.478908  0.112908
    H   H37   0.693188  0.091784  0.521092  0.112883
    H   H38   0.091784  0.306812  0.521092  0.112886
    H   H39   0.306812  0.908216  0.521092  0.112885
    H   H40   0.908216  0.693188  0.521092  0.112882
    H   H41   0.193188  0.408216  0.978908  0.112926
    H   H42   0.591784  0.193188  0.978908  0.112928
    H   H43   0.806812  0.591784  0.978908  0.112902
    H   H44   0.408216  0.806812  0.978908  0.112925
    H   H45   0.193188  0.591784  0.021092  0.112924
    H   H46   0.591784  0.806812  0.021092  0.112921
    H   H47   0.806812  0.408216  0.021092  0.112918
    H   H48   0.408216  0.193188  0.021092  0.112922
    C   C105  0.782304  0.949228  0.487427  -0.050883
    C   C106  0.050772  0.782304  0.487427  -0.050884
    C   C107  0.217696  0.050772  0.487427  -0.050893
    C   C108  0.949228  0.217696  0.487427  -0.050888
    C   C109  0.782304  0.050772  0.512573  -0.050934
    C   C110  0.050772  0.217696  0.512573  -0.050938
    C   C111  0.217696  0.949228  0.512573  -0.050932
    C   C112  0.949228  0.782304  0.512573  -0.050928
    C   C113  0.282304  0.449228  0.987427  -0.050885
    C   C114  0.550772  0.282304  0.987427  -0.050887
    C   C115  0.717696  0.550772  0.987427  -0.051064
    C   C116  0.449228  0.717695  0.987427  -0.050899
    C   C117  0.282304  0.550772  0.012573  -0.050895
    C   C118  0.550772  0.717695  0.012573  -0.050912
    C   C119  0.717696  0.449228  0.012573  -0.050969
    C   C120  0.449228  0.282304  0.012573  -0.050895
    H   H49   0.807310  0.909149  0.477772  0.108407
    H   H50   0.090851  0.807310  0.477772  0.108406
    H   H51   0.192690  0.090851  0.477772  0.108408
    H   H52   0.909149  0.192690  0.477772  0.108407
    H   H53   0.807310  0.090851  0.522228  0.108401
    H   H54   0.090851  0.192690  0.522228  0.108401
    H   H55   0.192690  0.909149  0.522228  0.108401
    H   H56   0.909149  0.807310  0.522228  0.108400
    H   H57   0.307310  0.409149  0.977772  0.108400
    H   H58   0.590851  0.307310  0.977772  0.108401
    H   H59   0.692690  0.590851  0.977772  0.108432
    H   H60   0.409149  0.692690  0.977772  0.108405
    H   H61   0.307310  0.590851  0.022228  0.108409
    H   H62   0.590851  0.692690  0.022228  0.108418
    H   H63   0.692690  0.409149  0.022228  0.108421
    H   H64   0.409149  0.307310  0.022228  0.108410
    C   C121  0.814458  0.000000  0.500000  -0.128757
    C   C122  0.000000  0.814458  0.500000  -0.128760
    C   C123  0.185542  0.000000  0.500000  -0.128739
    C   C124  0.000000  0.185542  0.500000  -0.128736
    C   C125  0.314458  0.500000  0.000000  -0.128777
    C   C126  0.500000  0.314458  0.000000  -0.128770
    C   C127  0.685542  0.500000  0.000000  -0.128648
    C   C128  0.500000  0.685542  0.000000  -0.128748
    C   C129  0.685918  0.000000  0.500000  0.129175
    C   C130  0.000000  0.685918  0.500000  0.129173
    C   C131  0.314082  0.000000  0.500000  0.129175
    C   C132  0.000000  0.314082  0.500000  0.129170
    C   C133  0.185918  0.500000  0.000000  0.129436
    C   C134  0.500000  0.185918  0.000000  0.129441
    C   C135  0.814082  0.500000  0.000000  0.129348
    C   C136  0.500000  0.814082  0.000000  0.129422
    O   O33   0.980398  0.088537  0.471963  -0.652135
    O   O34   0.911463  0.980398  0.471963  -0.652132
    O   O35   0.019602  0.911463  0.471963  -0.652130
    O   O36   0.088537  0.019602  0.471963  -0.652137
    O   O37   0.980398  0.911463  0.528037  -0.652177
    O   O38   0.911463  0.019602  0.528037  -0.652175
    O   O39   0.019602  0.088537  0.528037  -0.652182
    O   O40   0.088537  0.980398  0.528037  -0.652179
    O   O41   0.480398  0.588537  0.971963  -0.652190
    O   O42   0.411463  0.480398  0.971963  -0.652193
    O   O43   0.519602  0.411463  0.971963  -0.652195
    O   O44   0.588537  0.519602  0.971963  -0.652180
    O   O45   0.480398  0.411463  0.028037  -0.652220
    O   O46   0.411463  0.519602  0.028037  -0.652220
    O   O47   0.519602  0.588537  0.028037  -0.652215
    O   O48   0.588537  0.480398  0.028037  -0.652221
    C   C137  0.000000  0.117621  0.500000  0.832971
    C   C138  0.882379  0.000000  0.500000  0.832991
    C   C139  0.000000  0.882379  0.500000  0.832994
    C   C140  0.117621  0.000000  0.500000  0.832973
    C   C141  0.500000  0.617621  0.000000  0.833057
    C   C142  0.382379  0.500000  0.000000  0.833074
    C   C143  0.500000  0.382379  0.000000  0.833074
    C   C144  0.617621  0.500000  0.000000  0.833036
    Cu  Cu9   0.000000  0.000000  0.466605  1.000123
    Cu  Cu10  0.000000  0.000000  0.533395  1.000028
    Cu  Cu11  0.500000  0.500000  0.966605  1.000114
    Cu  Cu12  0.500000  0.500000  0.033395  1.000137
    C   C145  0.607678  0.952645  0.894232  0.389096
    H   H65   0.652240  0.955752  0.881209  0.010571
    O   O49   0.603006  0.919065  0.919436  -0.408745
    C   C146  0.047355  0.607678  0.894232  0.389039
    H   H66   0.044248  0.652240  0.881209  0.010582
    O   O50   0.080935  0.603006  0.919436  -0.408734
    C   C147  0.392322  0.047355  0.894232  0.389042
    H   H67   0.347760  0.044248  0.881209  0.010579
    O   O51   0.396994  0.080935  0.919436  -0.408733
    C   C148  0.952645  0.392322  0.894232  0.389103
    H   H68   0.955752  0.347760  0.881209  0.010569
    O   O52   0.919065  0.396994  0.919436  -0.408741
    C   C149  0.607678  0.047355  0.105768  0.388993
    H   H69   0.652240  0.044248  0.118791  0.010586
    O   O53   0.603006  0.080935  0.080564  -0.408724
    C   C150  0.047355  0.392322  0.105768  0.389002
    H   H70   0.044248  0.347760  0.118791  0.010583
    O   O54   0.080935  0.396994  0.080564  -0.408724
    C   C151  0.392322  0.952645  0.105768  0.388993
    H   H71   0.347760  0.955752  0.118791  0.010585
    O   O55   0.396994  0.919065  0.080564  -0.408724
    C   C152  0.952645  0.607678  0.105768  0.389005
    H   H72   0.955752  0.652240  0.118791  0.010586
    O   O56   0.919065  0.603006  0.080564  -0.408739
    C   C153  0.107678  0.452645  0.394232  0.389053
    H   H73   0.152240  0.455752  0.381209  0.010572
    O   O57   0.103006  0.419065  0.419436  -0.408733
    C   C154  0.547355  0.107678  0.394232  0.389063
    H   H74   0.544248  0.152240  0.381209  0.010570
    O   O58   0.580935  0.103006  0.419436  -0.408737
    C   C155  0.892322  0.547355  0.394232  0.389071
    H   H75   0.847760  0.544248  0.381209  0.010566
    O   O59   0.896994  0.580935  0.419436  -0.408738
    C   C156  0.452645  0.892322  0.394232  0.389057
    H   H76   0.455752  0.847760  0.381209  0.010570
    O   O60   0.419065  0.896994  0.419436  -0.408733
    C   C157  0.107678  0.547355  0.605768  0.389002
    H   H77   0.152240  0.544248  0.618791  0.010586
    O   O61   0.103006  0.580935  0.580564  -0.408724
    C   C158  0.547355  0.892322  0.605768  0.389010
    H   H78   0.544248  0.847760  0.618791  0.010583
    O   O62   0.580935  0.896994  0.580564  -0.408725
    C   C159  0.892322  0.452645  0.605768  0.388999
    H   H79   0.847760  0.455752  0.618791  0.010585
    O   O63   0.896994  0.419065  0.580564  -0.408721
    C   C160  0.452645  0.107678  0.605768  0.388989
    H   H80   0.455752  0.152240  0.618791  0.010590
    O   O64   0.419065  0.103006  0.580564  -0.408719
