# Generated by REPEAT Assigner based on pymatgen
data_DB0-m2_o1_o3_f0_nbo.sym.11_sqe
_audit_creation_date              2022-05-24
_audit_creation_method            REPEAT_Assigner
_cell_length_a                    21.545648
_cell_length_b                    21.545648
_cell_length_c                    38.519219
_cell_angle_alpha                 90.000000
_cell_angle_beta                  90.000000
_cell_angle_gamma                 90.000000
_cell_volume                      17881.197281
_symmetry_space_group_name_H-M    P1
_symmetry_Int_Tables_number       1
loop_
    _symmetry_equiv_pos_site_id
    _symmetry_equiv_pos_as_xyz
    1  x,y,z
loop_
    _atom_site_type_symbol
    _atom_site_label
    _atom_site_fract_x
    _atom_site_fract_y
    _atom_site_fract_z
    _atom_type_partial_charge
    O   O1    0.588468  0.051183  0.509607  -0.651593
    O   O2    0.948817  0.588468  0.509607  -0.651614
    O   O3    0.411532  0.948817  0.509607  -0.651609
    O   O4    0.051183  0.411532  0.509607  -0.651598
    O   O5    0.588468  0.948817  0.490393  -0.651606
    O   O6    0.948817  0.411532  0.490393  -0.651614
    O   O7    0.411532  0.051183  0.490393  -0.651600
    O   O8    0.051183  0.588468  0.490393  -0.651593
    O   O9    0.088468  0.551183  0.009607  -0.651588
    O   O10   0.448817  0.088468  0.009607  -0.651590
    O   O11   0.911532  0.448817  0.009607  -0.651595
    O   O12   0.551183  0.911532  0.009607  -0.651603
    O   O13   0.088468  0.448817  0.990393  -0.651590
    O   O14   0.448817  0.911532  0.990393  -0.651595
    O   O15   0.911532  0.551183  0.990393  -0.651590
    O   O16   0.551183  0.088468  0.990393  -0.651587
    C   C1    0.617559  0.000000  0.500000  1.108269
    C   C2    0.000000  0.617559  0.500000  1.108287
    C   C3    0.382440  0.000000  0.500000  1.108285
    C   C4    0.000000  0.382440  0.500000  1.108295
    C   C5    0.117559  0.500000  0.000000  1.108257
    C   C6    0.500000  0.117559  0.000000  1.108265
    C   C7    0.882440  0.500000  0.000000  1.108261
    C   C8    0.500000  0.882440  0.000000  1.108269
    O   O17   0.482962  0.051243  0.549604  -0.651399
    O   O18   0.948757  0.482962  0.549604  -0.651394
    O   O19   0.517038  0.948757  0.549604  -0.651388
    O   O20   0.051243  0.517038  0.549604  -0.651386
    O   O21   0.482962  0.948757  0.450395  -0.651396
    O   O22   0.948757  0.517038  0.450395  -0.651400
    O   O23   0.517038  0.051243  0.450395  -0.651387
    O   O24   0.051243  0.482962  0.450395  -0.651381
    O   O25   0.982962  0.551243  0.049604  -0.651399
    O   O26   0.448757  0.982962  0.049604  -0.651397
    O   O27   0.017038  0.448757  0.049604  -0.651393
    O   O28   0.551243  0.017038  0.049604  -0.651397
    O   O29   0.982962  0.448757  0.950395  -0.651382
    O   O30   0.448757  0.017038  0.950395  -0.651382
    O   O31   0.017038  0.551243  0.950395  -0.651386
    O   O32   0.551243  0.982962  0.950395  -0.651385
    C   C9    0.500000  0.000000  0.565860  0.735076
    C   C10   0.000000  0.500000  0.565860  0.735062
    C   C11   0.500000  0.000000  0.434140  0.735084
    C   C12   0.000000  0.500000  0.434140  0.735070
    C   C13   0.000000  0.500000  0.065860  0.735082
    C   C14   0.500000  0.000000  0.065860  0.735086
    C   C15   0.000000  0.500000  0.934140  0.735093
    C   C16   0.500000  0.000000  0.934140  0.735099
    Cu  Cu1   0.500000  0.060665  0.500000  0.965577
    Cu  Cu2   0.939335  0.500000  0.500000  0.965584
    Cu  Cu3   0.500000  0.939335  0.500000  0.965576
    Cu  Cu4   0.060664  0.500000  0.500000  0.965580
    Cu  Cu5   0.000000  0.560665  0.000000  0.965553
    Cu  Cu6   0.439335  0.000000  0.000000  0.965567
    Cu  Cu7   0.000000  0.439335  0.000000  0.965566
    Cu  Cu8   0.560664  0.000000  0.000000  0.965560
    C   C17   0.555073  0.005597  0.878150  0.042847
    C   C18   0.994403  0.555073  0.878150  0.042862
    C   C19   0.444927  0.994403  0.878150  0.042848
    C   C20   0.005597  0.444927  0.878150  0.042865
    C   C21   0.555073  0.994403  0.121850  0.042871
    C   C22   0.994403  0.444927  0.121850  0.042870
    C   C23   0.444927  0.005597  0.121850  0.042875
    C   C24   0.005597  0.555073  0.121850  0.042868
    C   C25   0.055073  0.505597  0.378150  0.042863
    C   C26   0.494403  0.055073  0.378150  0.042849
    C   C27   0.944927  0.494403  0.378150  0.042863
    C   C28   0.505597  0.944927  0.378150  0.042851
    C   C29   0.055073  0.494403  0.621850  0.042880
    C   C30   0.494403  0.944927  0.621850  0.042881
    C   C31   0.944927  0.505597  0.621850  0.042875
    C   C32   0.505597  0.055073  0.621850  0.042886
    H   H1    0.598539  0.010934  0.891826  0.115293
    H   H2    0.989066  0.598539  0.891826  0.115290
    H   H3    0.401461  0.989066  0.891826  0.115292
    H   H4    0.010934  0.401461  0.891826  0.115291
    H   H5    0.598539  0.989066  0.108174  0.115287
    H   H6    0.989066  0.401461  0.108174  0.115288
    H   H7    0.401461  0.010934  0.108174  0.115288
    H   H8    0.010934  0.598539  0.108174  0.115290
    H   H9    0.098539  0.510934  0.391826  0.115291
    H   H10   0.489065  0.098539  0.391825  0.115296
    H   H11   0.901461  0.489066  0.391825  0.115292
    H   H12   0.510934  0.901461  0.391825  0.115296
    H   H13   0.098538  0.489066  0.608174  0.115285
    H   H14   0.489066  0.901462  0.608174  0.115285
    H   H15   0.901461  0.510934  0.608174  0.115286
    H   H16   0.510934  0.098538  0.608174  0.115285
    C   C33   0.554939  0.006577  0.842375  -0.494134
    C   C34   0.993423  0.554939  0.842376  -0.494112
    C   C35   0.445061  0.993423  0.842375  -0.494134
    C   C36   0.006577  0.445061  0.842376  -0.494118
    C   C37   0.554939  0.993423  0.157624  -0.494113
    C   C38   0.993423  0.445061  0.157624  -0.494111
    C   C39   0.445061  0.006577  0.157624  -0.494119
    C   C40   0.006577  0.554939  0.157624  -0.494111
    C   C41   0.054939  0.506577  0.342376  -0.494115
    C   C42   0.493423  0.054939  0.342375  -0.494134
    C   C43   0.945061  0.493423  0.342376  -0.494117
    C   C44   0.506577  0.945061  0.342375  -0.494142
    C   C45   0.054939  0.493423  0.657624  -0.494114
    C   C46   0.493423  0.945061  0.657624  -0.494125
    C   C47   0.945061  0.506577  0.657624  -0.494120
    C   C48   0.506577  0.054939  0.657624  -0.494128
    H   H17   0.598208  0.013295  0.828715  0.174638
    H   H18   0.986705  0.598208  0.828715  0.174623
    H   H19   0.401792  0.986705  0.828715  0.174639
    H   H20   0.013294  0.401792  0.828715  0.174625
    H   H21   0.598208  0.986705  0.171285  0.174623
    H   H22   0.986705  0.401792  0.171285  0.174623
    H   H23   0.401792  0.013294  0.171285  0.174624
    H   H24   0.013294  0.598208  0.171285  0.174622
    H   H25   0.098208  0.513295  0.328715  0.174623
    H   H26   0.486705  0.098208  0.328715  0.174639
    H   H27   0.901792  0.486705  0.328715  0.174625
    H   H28   0.513294  0.901792  0.328715  0.174640
    H   H29   0.098208  0.486705  0.671285  0.174623
    H   H30   0.486705  0.901792  0.671284  0.174630
    H   H31   0.901792  0.513294  0.671285  0.174624
    H   H32   0.513294  0.098208  0.671284  0.174629
    C   C49   0.500000  0.000000  0.824224  0.811371
    C   C50   0.000000  0.500000  0.824224  0.811341
    C   C51   0.500000  0.000000  0.175776  0.811342
    C   C52   0.000000  0.500000  0.175776  0.811336
    C   C53   0.000000  0.500000  0.324224  0.811339
    C   C54   0.500000  0.000000  0.324224  0.811369
    C   C55   0.000000  0.500000  0.675776  0.811348
    C   C56   0.500000  0.000000  0.675776  0.811345
    C   C57   0.500000  0.000000  0.896180  -0.130164
    C   C58   0.000000  0.500000  0.896180  -0.130174
    C   C59   0.500000  0.000000  0.103820  -0.130180
    C   C60   0.000000  0.500000  0.103820  -0.130180
    C   C61   0.000000  0.500000  0.396180  -0.130160
    C   C62   0.500000  0.000000  0.396180  -0.130158
    C   C63   0.000000  0.500000  0.603820  -0.130182
    C   C64   0.500000  0.000000  0.603820  -0.130193
    C   C65   0.460855  0.039241  0.767906  0.305875
    C   C66   0.960759  0.460855  0.767906  0.305868
    C   C67   0.539145  0.960759  0.767906  0.305855
    C   C68   0.039241  0.539145  0.767906  0.305873
    C   C69   0.460855  0.960759  0.232094  0.305875
    C   C70   0.960759  0.539145  0.232094  0.305863
    C   C71   0.539145  0.039241  0.232094  0.305882
    C   C72   0.039241  0.460855  0.232094  0.305881
    C   C73   0.960855  0.539241  0.267906  0.305892
    C   C74   0.460759  0.960855  0.267906  0.305869
    C   C75   0.039145  0.460759  0.267906  0.305871
    C   C76   0.539241  0.039145  0.267906  0.305872
    C   C77   0.960855  0.460759  0.732094  0.305882
    C   C78   0.460759  0.039145  0.732094  0.305874
    C   C79   0.039145  0.539241  0.732094  0.305886
    C   C80   0.539241  0.960855  0.732094  0.305896
    C   C81   0.500000  0.000000  0.713929  -0.578095
    C   C82   0.000000  0.500000  0.713929  -0.578096
    C   C83   0.500000  0.000000  0.286071  -0.578087
    C   C84   0.000000  0.500000  0.286071  -0.578093
    C   C85   0.000000  0.500000  0.213929  -0.578084
    C   C86   0.500000  0.000000  0.213929  -0.578092
    C   C87   0.000000  0.500000  0.786071  -0.578085
    C   C88   0.500000  0.000000  0.786071  -0.578086
    C   C89   0.717729  0.975217  0.472267  0.349732
    C   C90   0.024783  0.717729  0.472267  0.349736
    C   C91   0.282271  0.024783  0.472267  0.349730
    C   C92   0.975217  0.282271  0.472267  0.349740
    C   C93   0.717729  0.024783  0.527733  0.349715
    C   C94   0.024783  0.282271  0.527733  0.349724
    C   C95   0.282271  0.975217  0.527733  0.349725
    C   C96   0.975217  0.717729  0.527733  0.349732
    C   C97   0.217729  0.475217  0.972267  0.349733
    C   C98   0.524783  0.217729  0.972267  0.349736
    C   C99   0.782271  0.524783  0.972267  0.349735
    C   C100  0.475217  0.782271  0.972267  0.349740
    C   C101  0.217729  0.524783  0.027733  0.349720
    C   C102  0.524783  0.782271  0.027733  0.349727
    C   C103  0.782271  0.475217  0.027733  0.349729
    C   C104  0.475217  0.217729  0.027733  0.349730
    C   C105  0.781716  0.976318  0.471959  0.247304
    C   C106  0.023682  0.781716  0.471959  0.247306
    C   C107  0.218284  0.023682  0.471959  0.247313
    C   C108  0.976318  0.218284  0.471959  0.247307
    C   C109  0.781716  0.023682  0.528041  0.247318
    C   C110  0.023682  0.218284  0.528041  0.247318
    C   C111  0.218284  0.976318  0.528041  0.247315
    C   C112  0.976318  0.781716  0.528041  0.247305
    C   C113  0.281716  0.476318  0.971959  0.247309
    C   C114  0.523682  0.281716  0.971959  0.247308
    C   C115  0.718284  0.523682  0.971959  0.247309
    C   C116  0.476318  0.718284  0.971959  0.247306
    C   C117  0.281716  0.523682  0.028041  0.247319
    C   C118  0.523682  0.718284  0.028041  0.247317
    C   C119  0.718284  0.476318  0.028041  0.247311
    C   C120  0.476318  0.281716  0.028041  0.247308
    C   C121  0.814025  0.000000  0.500000  -0.418733
    C   C122  0.000000  0.814025  0.500000  -0.418726
    C   C123  0.185975  0.000000  0.500000  -0.418731
    C   C124  0.000000  0.185975  0.500000  -0.418731
    C   C125  0.314025  0.500000  0.000000  -0.418743
    C   C126  0.500000  0.314025  0.000000  -0.418738
    C   C127  0.685975  0.500000  0.000000  -0.418732
    C   C128  0.500000  0.685975  0.000000  -0.418739
    C   C129  0.685474  0.000000  0.500000  -0.598252
    C   C130  0.000000  0.685474  0.500000  -0.598267
    C   C131  0.314526  0.000000  0.500000  -0.598270
    C   C132  0.000000  0.314526  0.500000  -0.598278
    C   C133  0.185474  0.500000  0.000000  -0.598250
    C   C134  0.500000  0.185474  0.000000  -0.598258
    C   C135  0.814526  0.500000  0.000000  -0.598261
    C   C136  0.500000  0.814526  0.000000  -0.598265
    O   O33   0.016399  0.088858  0.471293  -0.651974
    O   O34   0.911142  0.016399  0.471293  -0.651975
    O   O35   0.983601  0.911142  0.471293  -0.651982
    O   O36   0.088858  0.983601  0.471293  -0.651977
    O   O37   0.016399  0.911142  0.528706  -0.651983
    O   O38   0.911142  0.983601  0.528706  -0.651993
    O   O39   0.983601  0.088858  0.528706  -0.651985
    O   O40   0.088858  0.016399  0.528706  -0.651982
    O   O41   0.516399  0.588858  0.971293  -0.651954
    O   O42   0.411142  0.516399  0.971293  -0.651955
    O   O43   0.483601  0.411142  0.971293  -0.651954
    O   O44   0.588858  0.483601  0.971293  -0.651950
    O   O45   0.516399  0.411142  0.028706  -0.651990
    O   O46   0.411142  0.483601  0.028706  -0.651989
    O   O47   0.483601  0.588858  0.028706  -0.651985
    O   O48   0.588858  0.516399  0.028706  -0.651989
    C   C137  0.000000  0.118004  0.500000  0.997726
    C   C138  0.881996  0.000000  0.500000  0.997727
    C   C139  0.000000  0.881996  0.500000  0.997728
    C   C140  0.118004  0.000000  0.500000  0.997733
    C   C141  0.500000  0.618004  0.000000  0.997709
    C   C142  0.381996  0.500000  0.000000  0.997709
    C   C143  0.500000  0.381996  0.000000  0.997702
    C   C144  0.618004  0.500000  0.000000  0.997699
    Cu  Cu9   0.000000  0.000000  0.466064  0.957037
    Cu  Cu10  0.000000  0.000000  0.533936  0.956992
    Cu  Cu11  0.500000  0.500000  0.966064  0.957074
    Cu  Cu12  0.500000  0.500000  0.033936  0.956987
    O   O49   0.423364  0.080039  0.785199  -0.553255
    H   H33   0.381026  0.062797  0.782569  0.383920
    O   O50   0.919960  0.423364  0.785199  -0.553253
    H   H34   0.937203  0.381026  0.782569  0.383915
    O   O51   0.576636  0.919960  0.785199  -0.553248
    H   H35   0.618974  0.937203  0.782569  0.383913
    O   O52   0.080039  0.576636  0.785199  -0.553256
    H   H36   0.062797  0.618974  0.782569  0.383919
    O   O53   0.423364  0.919960  0.214801  -0.553257
    H   H37   0.381026  0.937203  0.217431  0.383918
    O   O54   0.919960  0.576636  0.214801  -0.553255
    H   H38   0.937203  0.618974  0.217431  0.383917
    O   O55   0.576636  0.080039  0.214801  -0.553259
    H   H39   0.618974  0.062797  0.217431  0.383921
    O   O56   0.080039  0.423364  0.214801  -0.553260
    H   H40   0.062797  0.381026  0.217431  0.383922
    O   O57   0.923364  0.580039  0.285199  -0.553263
    H   H41   0.881026  0.562797  0.282569  0.383922
    O   O58   0.419960  0.923364  0.285199  -0.553252
    H   H42   0.437203  0.881026  0.282569  0.383915
    O   O59   0.076636  0.419960  0.285199  -0.553250
    H   H43   0.118974  0.437203  0.282569  0.383915
    O   O60   0.580039  0.076636  0.285199  -0.553258
    H   H44   0.562797  0.118974  0.282569  0.383919
    O   O61   0.923364  0.419960  0.714801  -0.553258
    H   H45   0.881026  0.437203  0.717431  0.383919
    O   O62   0.419960  0.076636  0.714801  -0.553256
    H   H46   0.437203  0.118974  0.717431  0.383917
    O   O63   0.076636  0.580039  0.714801  -0.553262
    H   H47   0.118974  0.562797  0.717431  0.383922
    O   O64   0.580039  0.923364  0.714801  -0.553266
    H   H48   0.562797  0.881026  0.717431  0.383923
    O   O65   0.686539  0.951604  0.444338  -0.556331
    H   H49   0.686422  0.906166  0.448183  0.390426
    O   O66   0.048396  0.686539  0.444338  -0.556334
    H   H50   0.093834  0.686422  0.448183  0.390426
    O   O67   0.313461  0.048396  0.444338  -0.556329
    H   H51   0.313578  0.093834  0.448183  0.390425
    O   O68   0.951604  0.313461  0.444338  -0.556331
    H   H52   0.906166  0.313578  0.448183  0.390425
    O   O69   0.686539  0.048396  0.555662  -0.556330
    H   H53   0.686422  0.093834  0.551817  0.390428
    O   O70   0.048396  0.313461  0.555662  -0.556329
    H   H54   0.093834  0.313578  0.551817  0.390427
    O   O71   0.313461  0.951604  0.555662  -0.556329
    H   H55   0.313578  0.906166  0.551817  0.390428
    O   O72   0.951604  0.686539  0.555662  -0.556331
    H   H56   0.906166  0.686422  0.551817  0.390426
    O   O73   0.186539  0.451604  0.944338  -0.556329
    H   H57   0.186422  0.406166  0.948183  0.390424
    O   O74   0.548396  0.186539  0.944338  -0.556329
    H   H58   0.593834  0.186422  0.948183  0.390422
    O   O75   0.813461  0.548396  0.944338  -0.556326
    H   H59   0.813578  0.593834  0.948183  0.390423
    O   O76   0.451604  0.813461  0.944338  -0.556332
    H   H60   0.406166  0.813578  0.948183  0.390424
    O   O77   0.186539  0.548396  0.055662  -0.556326
    H   H61   0.186422  0.593834  0.051817  0.390425
    O   O78   0.548396  0.813461  0.055662  -0.556329
    H   H62   0.593834  0.813578  0.051817  0.390425
    O   O79   0.813461  0.451604  0.055662  -0.556330
    H   H63   0.813578  0.406166  0.051817  0.390426
    O   O80   0.451604  0.186539  0.055662  -0.556331
    H   H64   0.406166  0.186422  0.051817  0.390425
    O   O81   0.812810  0.951662  0.444285  -0.531614
    H   H65   0.812590  0.985049  0.426621  0.394625
    O   O82   0.048338  0.812810  0.444285  -0.531612
    H   H66   0.014951  0.812590  0.426621  0.394623
    O   O83   0.187190  0.048338  0.444285  -0.531613
    H   H67   0.187410  0.014951  0.426621  0.394623
    O   O84   0.951662  0.187190  0.444285  -0.531614
    H   H68   0.985049  0.187410  0.426621  0.394623
    O   O85   0.812810  0.048338  0.555715  -0.531612
    H   H69   0.812590  0.014951  0.573379  0.394622
    O   O86   0.048338  0.187190  0.555715  -0.531614
    H   H70   0.014951  0.187410  0.573379  0.394620
    O   O87   0.187190  0.951662  0.555715  -0.531612
    H   H71   0.187410  0.985049  0.573379  0.394621
    O   O88   0.951662  0.812810  0.555715  -0.531618
    H   H72   0.985048  0.812590  0.573379  0.394626
    O   O89   0.312810  0.451662  0.944285  -0.531611
    H   H73   0.312590  0.485049  0.926620  0.394618
    O   O90   0.548338  0.312810  0.944285  -0.531613
    H   H74   0.514951  0.312590  0.926620  0.394619
    O   O91   0.687190  0.548338  0.944285  -0.531610
    H   H75   0.687410  0.514951  0.926620  0.394618
    O   O92   0.451662  0.687190  0.944285  -0.531609
    H   H76   0.485049  0.687410  0.926620  0.394617
    O   O93   0.312810  0.548338  0.055715  -0.531613
    H   H77   0.312590  0.514951  0.073379  0.394617
    O   O94   0.548338  0.687190  0.055715  -0.531615
    H   H78   0.514951  0.687410  0.073379  0.394619
    O   O95   0.687190  0.451662  0.055715  -0.531610
    H   H79   0.687410  0.485049  0.073379  0.394618
    O   O96   0.451662  0.312810  0.055715  -0.531613
    H   H80   0.485049  0.312590  0.073379  0.394618
