# Generated by REPEAT Assigner based on pymatgen
data_DB0-m2_o1_o3_f0_nbo.sym.38
_audit_creation_date              2022-05-24
_audit_creation_method            REPEAT_Assigner
_cell_length_a                    21.529162
_cell_length_b                    21.529162
_cell_length_c                    38.574223
_cell_angle_alpha                 90.000000
_cell_angle_beta                  90.000000
_cell_angle_gamma                 90.000000
_cell_volume                      17879.338546
_symmetry_space_group_name_H-M    P1
_symmetry_Int_Tables_number       1
loop_
    _symmetry_equiv_pos_site_id
    _symmetry_equiv_pos_as_xyz
    1  x,y,z
loop_
    _atom_site_type_symbol
    _atom_site_label
    _atom_site_fract_x
    _atom_site_fract_y
    _atom_site_fract_z
    _atom_type_partial_charge
    O   O1    0.588454  0.051111  0.509820  -0.581536
    O   O2    0.948889  0.588454  0.509820  -0.581516
    O   O3    0.411546  0.948889  0.509820  -0.581556
    O   O4    0.051111  0.411546  0.509820  -0.581568
    O   O5    0.588454  0.948889  0.490180  -0.581548
    O   O6    0.948889  0.411546  0.490180  -0.581526
    O   O7    0.411546  0.051111  0.490180  -0.581548
    O   O8    0.051111  0.588454  0.490180  -0.581561
    O   O9    0.088454  0.551111  0.009820  -0.581507
    O   O10   0.448889  0.088454  0.009820  -0.581552
    O   O11   0.911546  0.448889  0.009820  -0.581539
    O   O12   0.551111  0.911546  0.009820  -0.581501
    O   O13   0.088454  0.448889  0.990180  -0.581547
    O   O14   0.448889  0.911546  0.990180  -0.581546
    O   O15   0.911546  0.551111  0.990180  -0.581503
    O   O16   0.551111  0.088454  0.990180  -0.581509
    C   C1    0.617555  0.000000  0.500000  0.692233
    C   C2    0.000000  0.617555  0.500000  0.692198
    C   C3    0.382445  0.000000  0.500000  0.692261
    C   C4    0.000000  0.382445  0.500000  0.692243
    C   C5    0.117555  0.500000  0.000000  0.692229
    C   C6    0.500000  0.117555  0.000000  0.692253
    C   C7    0.882445  0.500000  0.000000  0.692266
    C   C8    0.500000  0.882445  0.000000  0.692286
    O   O17   0.482508  0.051130  0.549485  -0.602707
    O   O18   0.948870  0.482508  0.549485  -0.602685
    O   O19   0.517492  0.948870  0.549485  -0.602715
    O   O20   0.051130  0.517492  0.549485  -0.602731
    O   O21   0.482508  0.948870  0.450515  -0.602717
    O   O22   0.948870  0.517492  0.450515  -0.602685
    O   O23   0.517492  0.051130  0.450515  -0.602709
    O   O24   0.051130  0.482508  0.450515  -0.602731
    O   O25   0.982508  0.551130  0.049485  -0.602742
    O   O26   0.448870  0.982508  0.049485  -0.602723
    O   O27   0.017492  0.448870  0.049485  -0.602720
    O   O28   0.551130  0.017492  0.049485  -0.602744
    O   O29   0.982508  0.448870  0.950515  -0.602719
    O   O30   0.448870  0.017492  0.950515  -0.602727
    O   O31   0.017492  0.551130  0.950515  -0.602741
    O   O32   0.551130  0.982508  0.950515  -0.602740
    C   C9    0.500000  0.000000  0.565766  0.699846
    C   C10   0.000000  0.500000  0.565766  0.699842
    C   C11   0.500000  0.000000  0.434234  0.699854
    C   C12   0.000000  0.500000  0.434234  0.699815
    C   C13   0.000000  0.500000  0.065766  0.699805
    C   C14   0.500000  0.000000  0.065766  0.699842
    C   C15   0.000000  0.500000  0.934234  0.699831
    C   C16   0.500000  0.000000  0.934234  0.699854
    Cu  Cu1   0.500000  0.060625  0.500000  0.936243
    Cu  Cu2   0.939375  0.500000  0.500000  0.936204
    Cu  Cu3   0.500000  0.939375  0.500000  0.936063
    Cu  Cu4   0.060625  0.500000  0.500000  0.936116
    Cu  Cu5   0.000000  0.560625  0.000000  0.936184
    Cu  Cu6   0.439375  0.000000  0.000000  0.936118
    Cu  Cu7   0.000000  0.439375  0.000000  0.936135
    Cu  Cu8   0.560625  0.000000  0.000000  0.936179
    C   C17   0.554646  0.991053  0.878170  -0.069431
    C   C18   0.008947  0.554646  0.878170  -0.069447
    C   C19   0.445354  0.008947  0.878170  -0.069457
    C   C20   0.991053  0.445354  0.878170  -0.069462
    C   C21   0.554646  0.008947  0.121830  -0.069438
    C   C22   0.008947  0.445354  0.121830  -0.069471
    C   C23   0.445354  0.991053  0.121830  -0.069453
    C   C24   0.991053  0.554646  0.121830  -0.069447
    C   C25   0.054646  0.491053  0.378170  -0.069443
    C   C26   0.508947  0.054646  0.378170  -0.069435
    C   C27   0.945354  0.508947  0.378170  -0.069457
    C   C28   0.491053  0.945354  0.378170  -0.069442
    C   C29   0.054646  0.508947  0.621830  -0.069440
    C   C30   0.508947  0.945354  0.621830  -0.069446
    C   C31   0.945354  0.491053  0.621830  -0.069444
    C   C32   0.491053  0.054646  0.621830  -0.069427
    H   H1    0.598149  0.984599  0.891657  0.114661
    H   H2    0.015401  0.598149  0.891657  0.114666
    H   H3    0.401851  0.015401  0.891657  0.114668
    H   H4    0.984599  0.401851  0.891657  0.114669
    H   H5    0.598149  0.015401  0.108343  0.114664
    H   H6    0.015401  0.401851  0.108343  0.114673
    H   H7    0.401851  0.984599  0.108343  0.114667
    H   H8    0.984599  0.598149  0.108343  0.114668
    H   H9    0.098149  0.484599  0.391657  0.114665
    H   H10   0.515401  0.098149  0.391657  0.114663
    H   H11   0.901851  0.515401  0.391657  0.114669
    H   H12   0.484599  0.901851  0.391657  0.114662
    H   H13   0.098149  0.515401  0.608343  0.114664
    H   H14   0.515401  0.901851  0.608343  0.114664
    H   H15   0.901851  0.484599  0.608343  0.114663
    H   H16   0.484599  0.098149  0.608343  0.114659
    C   C33   0.554700  0.991397  0.842440  -0.168728
    C   C34   0.008603  0.554700  0.842440  -0.168720
    C   C35   0.445300  0.008603  0.842440  -0.168706
    C   C36   0.991397  0.445300  0.842440  -0.168707
    C   C37   0.554700  0.008603  0.157560  -0.168724
    C   C38   0.008603  0.445300  0.157560  -0.168703
    C   C39   0.445300  0.991397  0.157560  -0.168711
    C   C40   0.991397  0.554700  0.157560  -0.168726
    C   C41   0.054700  0.491397  0.342440  -0.168722
    C   C42   0.508603  0.054700  0.342440  -0.168721
    C   C43   0.945300  0.508603  0.342440  -0.168701
    C   C44   0.491397  0.945300  0.342440  -0.168708
    C   C45   0.054700  0.508603  0.657560  -0.168723
    C   C46   0.508603  0.945300  0.657560  -0.168705
    C   C47   0.945300  0.491397  0.657560  -0.168708
    C   C48   0.491397  0.054700  0.657560  -0.168726
    H   H17   0.598454  0.986171  0.829056  0.112220
    H   H18   0.013829  0.598454  0.829056  0.112219
    H   H19   0.401546  0.013829  0.829056  0.112214
    H   H20   0.986171  0.401546  0.829056  0.112214
    H   H21   0.598454  0.013829  0.170944  0.112220
    H   H22   0.013829  0.401546  0.170944  0.112215
    H   H23   0.401546  0.986171  0.170944  0.112216
    H   H24   0.986171  0.598454  0.170944  0.112220
    H   H25   0.098454  0.486171  0.329056  0.112218
    H   H26   0.513829  0.098454  0.329056  0.112217
    H   H27   0.901546  0.513829  0.329056  0.112212
    H   H28   0.486171  0.901546  0.329056  0.112214
    H   H29   0.098454  0.513829  0.670944  0.112219
    H   H30   0.513829  0.901546  0.670944  0.112214
    H   H31   0.901546  0.486171  0.670944  0.112214
    H   H32   0.486171  0.098454  0.670944  0.112218
    C   C49   0.500000  0.000000  0.824239  0.100885
    C   C50   0.000000  0.500000  0.824239  0.100880
    C   C51   0.500000  0.000000  0.175761  0.100884
    C   C52   0.000000  0.500000  0.175761  0.100880
    C   C53   0.000000  0.500000  0.324239  0.100880
    C   C54   0.500000  0.000000  0.324239  0.100887
    C   C55   0.000000  0.500000  0.675761  0.100884
    C   C56   0.500000  0.000000  0.675761  0.100884
    C   C57   0.500000  0.000000  0.896247  -0.062165
    C   C58   0.000000  0.500000  0.896247  -0.062140
    C   C59   0.500000  0.000000  0.103753  -0.062158
    C   C60   0.000000  0.500000  0.103753  -0.062124
    C   C61   0.000000  0.500000  0.396247  -0.062160
    C   C62   0.500000  0.000000  0.396247  -0.062189
    C   C63   0.000000  0.500000  0.603753  -0.062175
    C   C64   0.500000  0.000000  0.603753  -0.062185
    C   C65   0.460963  0.039204  0.767863  -0.145280
    C   C66   0.960796  0.460963  0.767863  -0.145268
    C   C67   0.539037  0.960796  0.767863  -0.145268
    C   C68   0.039204  0.539037  0.767863  -0.145282
    C   C69   0.460963  0.960796  0.232137  -0.145268
    C   C70   0.960796  0.539037  0.232137  -0.145266
    C   C71   0.539037  0.039204  0.232137  -0.145279
    C   C72   0.039204  0.460963  0.232137  -0.145280
    C   C73   0.960963  0.539204  0.267863  -0.145277
    C   C74   0.460796  0.960963  0.267863  -0.145263
    C   C75   0.039037  0.460796  0.267863  -0.145267
    C   C76   0.539204  0.039037  0.267863  -0.145272
    C   C77   0.960963  0.460796  0.732137  -0.145267
    C   C78   0.460796  0.039037  0.732137  -0.145264
    C   C79   0.039037  0.539204  0.732137  -0.145273
    C   C80   0.539204  0.960963  0.732137  -0.145274
    H   H33   0.430739  0.071282  0.781237  0.114867
    H   H34   0.928718  0.430739  0.781237  0.114864
    H   H35   0.569261  0.928718  0.781237  0.114865
    H   H36   0.071282  0.569261  0.781237  0.114869
    H   H37   0.430739  0.928718  0.218763  0.114863
    H   H38   0.928718  0.569261  0.218763  0.114864
    H   H39   0.569261  0.071282  0.218763  0.114869
    H   H40   0.071282  0.430739  0.218763  0.114867
    H   H41   0.930739  0.571282  0.281237  0.114867
    H   H42   0.428718  0.930739  0.281237  0.114862
    H   H43   0.069261  0.428718  0.281237  0.114866
    H   H44   0.571282  0.069261  0.281237  0.114868
    H   H45   0.930739  0.428718  0.718763  0.114864
    H   H46   0.428718  0.069261  0.718763  0.114865
    H   H47   0.069261  0.571282  0.718763  0.114869
    H   H48   0.571282  0.930739  0.718763  0.114867
    C   C81   0.500000  0.000000  0.713927  0.079962
    C   C82   0.000000  0.500000  0.713927  0.079962
    C   C83   0.500000  0.000000  0.286073  0.079959
    C   C84   0.000000  0.500000  0.286073  0.079965
    C   C85   0.000000  0.500000  0.213927  0.079967
    C   C86   0.500000  0.000000  0.213927  0.079966
    C   C87   0.000000  0.500000  0.786073  0.079968
    C   C88   0.500000  0.000000  0.786073  0.079966
    C   C89   0.717615  0.958889  0.479377  -0.225408
    C   C90   0.041111  0.717615  0.479377  -0.225427
    C   C91   0.282385  0.041111  0.479377  -0.225419
    C   C92   0.958889  0.282385  0.479377  -0.225419
    C   C93   0.717615  0.041111  0.520623  -0.225411
    C   C94   0.041111  0.282385  0.520623  -0.225427
    C   C95   0.282385  0.958889  0.520623  -0.225406
    C   C96   0.958889  0.717615  0.520623  -0.225415
    C   C97   0.217615  0.458889  0.979377  -0.225394
    C   C98   0.541111  0.217615  0.979377  -0.225405
    C   C99   0.782385  0.541111  0.979377  -0.225422
    C   C100  0.458889  0.782385  0.979377  -0.225395
    C   C101  0.217615  0.541111  0.020623  -0.225412
    C   C102  0.541111  0.782385  0.020623  -0.225408
    C   C103  0.782385  0.458889  0.020623  -0.225401
    C   C104  0.458889  0.217615  0.020623  -0.225386
    H   H49   0.692750  0.926853  0.462873  0.108610
    H   H50   0.073147  0.692750  0.462873  0.108616
    H   H51   0.307250  0.073147  0.462873  0.108616
    H   H52   0.926853  0.307250  0.462873  0.108613
    H   H53   0.692750  0.073147  0.537127  0.108609
    H   H54   0.073147  0.307250  0.537127  0.108619
    H   H55   0.307250  0.926853  0.537127  0.108610
    H   H56   0.926853  0.692750  0.537127  0.108612
    H   H57   0.192750  0.426853  0.962873  0.108610
    H   H58   0.573147  0.192750  0.962873  0.108595
    H   H59   0.807250  0.573147  0.962873  0.108601
    H   H60   0.426853  0.807250  0.962873  0.108611
    H   H61   0.192750  0.573147  0.037127  0.108599
    H   H62   0.573147  0.807250  0.037127  0.108595
    H   H63   0.807250  0.426853  0.037127  0.108609
    H   H64   0.426853  0.192750  0.037127  0.108607
    C   C105  0.781636  0.959731  0.478402  0.173958
    C   C106  0.040269  0.781636  0.478402  0.173943
    C   C107  0.218364  0.040269  0.478402  0.173985
    C   C108  0.959731  0.218364  0.478402  0.173961
    C   C109  0.781636  0.040269  0.521598  0.173955
    C   C110  0.040269  0.218364  0.521598  0.173966
    C   C111  0.218364  0.959731  0.521598  0.173961
    C   C112  0.959731  0.781636  0.521598  0.173951
    C   C113  0.281636  0.459731  0.978402  0.173958
    C   C114  0.540269  0.281636  0.978402  0.173978
    C   C115  0.718364  0.540269  0.978402  0.174008
    C   C116  0.459731  0.718364  0.978402  0.173993
    C   C117  0.281636  0.540269  0.021598  0.173971
    C   C118  0.540269  0.718364  0.021598  0.173993
    C   C119  0.718364  0.459731  0.021598  0.173981
    C   C120  0.459731  0.281636  0.021598  0.173959
    C   C121  0.814348  0.000000  0.500000  -0.215263
    C   C122  0.000000  0.814348  0.500000  -0.215265
    C   C123  0.185652  0.000000  0.500000  -0.215261
    C   C124  0.000000  0.185652  0.500000  -0.215255
    C   C125  0.314348  0.500000  0.000000  -0.215294
    C   C126  0.500000  0.314348  0.000000  -0.215292
    C   C127  0.685652  0.500000  0.000000  -0.215295
    C   C128  0.500000  0.685652  0.000000  -0.215304
    C   C129  0.685473  0.000000  0.500000  0.020588
    C   C130  0.000000  0.685473  0.500000  0.020621
    C   C131  0.314527  0.000000  0.500000  0.020577
    C   C132  0.000000  0.314527  0.500000  0.020597
    C   C133  0.185473  0.500000  0.000000  0.020582
    C   C134  0.500000  0.185473  0.000000  0.020558
    C   C135  0.814527  0.500000  0.000000  0.020552
    C   C136  0.500000  0.814527  0.000000  0.020531
    O   O33   0.019489  0.088265  0.471890  -0.435807
    O   O34   0.911735  0.019489  0.471890  -0.435783
    O   O35   0.980511  0.911735  0.471890  -0.435800
    O   O36   0.088265  0.980511  0.471890  -0.435800
    O   O37   0.019489  0.911735  0.528110  -0.435824
    O   O38   0.911735  0.980511  0.528110  -0.435825
    O   O39   0.980511  0.088265  0.528110  -0.435837
    O   O40   0.088265  0.019489  0.528110  -0.435825
    O   O41   0.519489  0.588265  0.971890  -0.435791
    O   O42   0.411735  0.519489  0.971890  -0.435819
    O   O43   0.480511  0.411735  0.971890  -0.435821
    O   O44   0.588265  0.480511  0.971890  -0.435800
    O   O45   0.519489  0.411735  0.028110  -0.435825
    O   O46   0.411735  0.480511  0.028110  -0.435845
    O   O47   0.480511  0.588265  0.028110  -0.435833
    O   O48   0.588265  0.519489  0.028110  -0.435828
    C   C137  0.000000  0.117515  0.500000  0.566713
    C   C138  0.882485  0.000000  0.500000  0.566692
    C   C139  0.000000  0.882485  0.500000  0.566701
    C   C140  0.117515  0.000000  0.500000  0.566698
    C   C141  0.500000  0.617515  0.000000  0.566703
    C   C142  0.382485  0.500000  0.000000  0.566733
    C   C143  0.500000  0.382485  0.000000  0.566726
    C   C144  0.617515  0.500000  0.000000  0.566701
    Cu  Cu9   0.000000  0.000000  0.466466  0.741355
    Cu  Cu10  0.000000  0.000000  0.533534  0.741303
    Cu  Cu11  0.500000  0.500000  0.966466  0.741371
    Cu  Cu12  0.500000  0.500000  0.033534  0.741335
    C   C145  0.812739  0.913538  0.456461  0.065896
    C   C146  0.801256  0.851403  0.462189  -0.084374
    C   C147  0.829472  0.806699  0.442065  -0.344766
    C   C148  0.867931  0.824010  0.415176  0.353743
    C   C149  0.898444  0.776109  0.393164  -0.310894
    C   C150  0.876620  0.886138  0.408023  -0.292953
    C   C151  0.848370  0.930758  0.428257  -0.140811
    H   H65   0.770302  0.837511  0.482800  0.120203
    H   H66   0.820926  0.758197  0.447487  0.146893
    H   H67   0.885862  0.728888  0.402212  0.081004
    H   H68   0.949542  0.781615  0.394592  0.063084
    H   H69   0.883115  0.781915  0.365914  0.077317
    H   H70   0.905308  0.899977  0.386365  0.135321
    H   H71   0.853865  0.979099  0.421593  0.140129
    C   C152  0.086462  0.812739  0.456462  0.065979
    C   C153  0.148597  0.801256  0.462189  -0.084434
    C   C154  0.193301  0.829472  0.442066  -0.344677
    C   C155  0.175990  0.867931  0.415176  0.353600
    C   C156  0.223891  0.898444  0.393165  -0.310874
    C   C157  0.113862  0.876620  0.408023  -0.292838
    C   C158  0.069242  0.848370  0.428257  -0.140906
    H   H72   0.162489  0.770302  0.482800  0.120206
    H   H73   0.241803  0.820926  0.447488  0.146884
    H   H74   0.271112  0.885862  0.402212  0.081014
    H   H75   0.218385  0.949542  0.394592  0.063087
    H   H76   0.218085  0.883114  0.365914  0.077310
    H   H77   0.100023  0.905308  0.386365  0.135304
    H   H78   0.020901  0.853865  0.421593  0.140145
    C   C159  0.187261  0.086461  0.456461  0.065858
    C   C160  0.198744  0.148597  0.462189  -0.084357
    C   C161  0.170528  0.193301  0.442065  -0.344796
    C   C162  0.132069  0.175990  0.415176  0.353770
    C   C163  0.101556  0.223891  0.393164  -0.310894
    C   C164  0.123380  0.113862  0.408023  -0.292968
    C   C165  0.151630  0.069242  0.428257  -0.140788
    H   H79   0.229698  0.162489  0.482800  0.120204
    H   H80   0.179074  0.241803  0.447487  0.146901
    H   H81   0.114138  0.271112  0.402212  0.081004
    H   H82   0.050458  0.218385  0.394592  0.063083
    H   H83   0.116886  0.218085  0.365914  0.077315
    H   H84   0.094691  0.100023  0.386365  0.135320
    H   H85   0.146135  0.020901  0.421593  0.140126
    C   C166  0.913538  0.187261  0.456461  0.065897
    C   C167  0.851403  0.198744  0.462189  -0.084385
    C   C168  0.806699  0.170528  0.442065  -0.344772
    C   C169  0.824010  0.132069  0.415176  0.353753
    C   C170  0.776109  0.101556  0.393164  -0.310885
    C   C171  0.886138  0.123380  0.408023  -0.292958
    C   C172  0.930758  0.151630  0.428257  -0.140821
    H   H86   0.837511  0.229698  0.482800  0.120212
    H   H87   0.758197  0.179074  0.447487  0.146895
    H   H88   0.728888  0.114138  0.402212  0.081002
    H   H89   0.781615  0.050458  0.394592  0.063082
    H   H90   0.781915  0.116885  0.365914  0.077312
    H   H91   0.899977  0.094691  0.386365  0.135321
    H   H92   0.979099  0.146135  0.421593  0.140134
    C   C173  0.812739  0.086462  0.543538  0.065902
    C   C174  0.801256  0.148597  0.537811  -0.084343
    C   C175  0.829472  0.193301  0.557934  -0.344793
    C   C176  0.867931  0.175990  0.584824  0.353726
    C   C177  0.898444  0.223891  0.606835  -0.310875
    C   C178  0.876620  0.113862  0.591977  -0.292929
    C   C179  0.848370  0.069242  0.571743  -0.140822
    H   H93   0.770302  0.162489  0.517200  0.120197
    H   H94   0.820926  0.241803  0.552512  0.146903
    H   H95   0.885862  0.271112  0.597788  0.081009
    H   H96   0.949542  0.218385  0.605408  0.063083
    H   H97   0.883115  0.218085  0.634086  0.077303
    H   H98   0.905308  0.100023  0.613635  0.135315
    H   H99   0.853865  0.020901  0.578407  0.140128
    C   C180  0.086461  0.187261  0.543539  0.065868
    C   C181  0.148597  0.198744  0.537811  -0.084352
    C   C182  0.193301  0.170528  0.557935  -0.344810
    C   C183  0.175990  0.132069  0.584824  0.353764
    C   C184  0.223891  0.101556  0.606836  -0.310896
    C   C185  0.113862  0.123380  0.591977  -0.292959
    C   C186  0.069242  0.151630  0.571743  -0.140784
    H   H100  0.162489  0.229698  0.517200  0.120206
    H   H101  0.241803  0.179074  0.552513  0.146907
    H   H102  0.271112  0.114138  0.597788  0.081008
    H   H103  0.218385  0.050458  0.605408  0.063083
    H   H104  0.218085  0.116886  0.634086  0.077316
    H   H105  0.100023  0.094691  0.613635  0.135316
    H   H106  0.020901  0.146135  0.578407  0.140118
    C   C187  0.187261  0.913538  0.543539  0.065887
    C   C188  0.198744  0.851403  0.537811  -0.084369
    C   C189  0.170528  0.806699  0.557935  -0.344772
    C   C190  0.132069  0.824010  0.584824  0.353744
    C   C191  0.101556  0.776109  0.606836  -0.310878
    C   C192  0.123380  0.886138  0.591977  -0.292940
    C   C193  0.151630  0.930758  0.571743  -0.140812
    H   H107  0.229698  0.837511  0.517200  0.120208
    H   H108  0.179074  0.758197  0.552513  0.146896
    H   H109  0.114138  0.728888  0.597788  0.081001
    H   H110  0.050458  0.781615  0.605408  0.063075
    H   H111  0.116885  0.781915  0.634086  0.077315
    H   H112  0.094691  0.899977  0.613635  0.135313
    H   H113  0.146135  0.979099  0.578407  0.140125
    C   C194  0.913538  0.812739  0.543539  0.065901
    C   C195  0.851403  0.801256  0.537811  -0.084369
    C   C196  0.806699  0.829472  0.557935  -0.344774
    C   C197  0.824010  0.867931  0.584824  0.353743
    C   C198  0.776109  0.898444  0.606836  -0.310892
    C   C199  0.886138  0.876620  0.591977  -0.292951
    C   C200  0.930758  0.848370  0.571743  -0.140803
    H   H114  0.837511  0.770302  0.517200  0.120206
    H   H115  0.758197  0.820926  0.552513  0.146897
    H   H116  0.728888  0.885862  0.597788  0.081006
    H   H117  0.781615  0.949542  0.605408  0.063082
    H   H118  0.781915  0.883115  0.634086  0.077318
    H   H119  0.899977  0.905309  0.613635  0.135317
    H   H120  0.979099  0.853865  0.578407  0.140125
    C   C201  0.312739  0.413538  0.956461  0.065879
    C   C202  0.301256  0.351403  0.962189  -0.084364
    C   C203  0.329472  0.306699  0.942065  -0.344783
    C   C204  0.367931  0.324010  0.915176  0.353751
    C   C205  0.398444  0.276109  0.893164  -0.310893
    C   C206  0.376620  0.386138  0.908023  -0.292961
    C   C207  0.348370  0.430758  0.928257  -0.140791
    H   H121  0.270302  0.337511  0.982800  0.120203
    H   H122  0.320926  0.258197  0.947487  0.146900
    H   H123  0.385862  0.228888  0.902212  0.081005
    H   H124  0.449542  0.281615  0.894592  0.063083
    H   H125  0.383115  0.281915  0.865914  0.077317
    H   H126  0.405309  0.399977  0.886365  0.135320
    H   H127  0.353865  0.479099  0.921593  0.140126
    C   C208  0.586462  0.312739  0.956462  0.065885
    C   C209  0.648597  0.301256  0.962189  -0.084333
    C   C210  0.693301  0.329472  0.942066  -0.344800
    C   C211  0.675990  0.367931  0.915176  0.353742
    C   C212  0.723891  0.398444  0.893165  -0.310880
    C   C213  0.613862  0.376620  0.908023  -0.292950
    C   C214  0.569242  0.348370  0.928257  -0.140809
    H   H128  0.662489  0.270302  0.982800  0.120191
    H   H129  0.741803  0.320926  0.947488  0.146903
    H   H130  0.771112  0.385862  0.902212  0.081010
    H   H131  0.718385  0.449542  0.894592  0.063086
    H   H132  0.718085  0.383114  0.865914  0.077302
    H   H133  0.600023  0.405308  0.886365  0.135321
    H   H134  0.520901  0.353865  0.921593  0.140126
    C   C215  0.687261  0.586461  0.956461  0.065850
    C   C216  0.698744  0.648597  0.962189  -0.084343
    C   C217  0.670528  0.693301  0.942065  -0.344815
    C   C218  0.632069  0.675990  0.915176  0.353774
    C   C219  0.601556  0.723891  0.893164  -0.310893
    C   C220  0.623380  0.613862  0.908023  -0.292979
    C   C221  0.651630  0.569242  0.928257  -0.140769
    H   H135  0.729698  0.662489  0.982800  0.120201
    H   H136  0.679074  0.741803  0.947487  0.146904
    H   H137  0.614138  0.771112  0.902212  0.081007
    H   H138  0.550458  0.718385  0.894592  0.063084
    H   H139  0.616886  0.718085  0.865914  0.077314
    H   H140  0.594692  0.600023  0.886365  0.135324
    H   H141  0.646135  0.520901  0.921593  0.140115
    C   C222  0.413538  0.687261  0.956461  0.065852
    C   C223  0.351403  0.698744  0.962189  -0.084367
    C   C224  0.306699  0.670528  0.942065  -0.344775
    C   C225  0.324010  0.632069  0.915176  0.353741
    C   C226  0.276109  0.601556  0.893164  -0.310866
    C   C227  0.386138  0.623380  0.908023  -0.292951
    C   C228  0.430758  0.651630  0.928257  -0.140783
    H   H142  0.337511  0.729698  0.982800  0.120206
    H   H143  0.258197  0.679074  0.947487  0.146894
    H   H144  0.228888  0.614138  0.902211  0.081002
    H   H145  0.281615  0.550458  0.894592  0.063073
    H   H146  0.281915  0.616886  0.865914  0.077309
    H   H147  0.399977  0.594692  0.886365  0.135315
    H   H148  0.479099  0.646135  0.921593  0.140118
    C   C229  0.312739  0.586462  0.043538  0.065879
    C   C230  0.301256  0.648597  0.037811  -0.084329
    C   C231  0.329472  0.693301  0.057934  -0.344802
    C   C232  0.367931  0.675990  0.084824  0.353733
    C   C233  0.398444  0.723891  0.106835  -0.310878
    C   C234  0.376620  0.613862  0.091977  -0.292949
    C   C235  0.348370  0.569242  0.071743  -0.140789
    H   H149  0.270302  0.662489  0.017200  0.120193
    H   H150  0.320926  0.741803  0.052512  0.146906
    H   H151  0.385862  0.771112  0.097788  0.081010
    H   H152  0.449542  0.718385  0.105408  0.063083
    H   H153  0.383115  0.718085  0.134086  0.077306
    H   H154  0.405309  0.600023  0.113635  0.135317
    H   H155  0.353865  0.520901  0.078407  0.140119
    C   C236  0.586462  0.687261  0.043539  0.065862
    C   C237  0.648597  0.698744  0.037811  -0.084329
    C   C238  0.693301  0.670528  0.057934  -0.344810
    C   C239  0.675990  0.632069  0.084824  0.353743
    C   C240  0.723891  0.601556  0.106835  -0.310876
    C   C241  0.613862  0.623380  0.091977  -0.292947
    C   C242  0.569242  0.651630  0.071743  -0.140783
    H   H156  0.662489  0.729698  0.017200  0.120201
    H   H157  0.741803  0.679074  0.052512  0.146906
    H   H158  0.771112  0.614138  0.097788  0.081009
    H   H159  0.718385  0.550458  0.105408  0.063082
    H   H160  0.718085  0.616886  0.134086  0.077304
    H   H161  0.600023  0.594691  0.113635  0.135315
    H   H162  0.520901  0.646135  0.078407  0.140117
    C   C243  0.687261  0.413539  0.043539  0.065861
    C   C244  0.698744  0.351403  0.037811  -0.084367
    C   C245  0.670528  0.306699  0.057935  -0.344786
    C   C246  0.632069  0.324010  0.084824  0.353745
    C   C247  0.601556  0.276109  0.106836  -0.310866
    C   C248  0.623380  0.386138  0.091977  -0.292953
    C   C249  0.651630  0.430758  0.071743  -0.140781
    H   H163  0.729698  0.337511  0.017200  0.120211
    H   H164  0.679074  0.258197  0.052513  0.146897
    H   H165  0.614138  0.228888  0.097789  0.081003
    H   H166  0.550458  0.281615  0.105408  0.063074
    H   H167  0.616885  0.281915  0.134086  0.077309
    H   H168  0.594691  0.399977  0.113635  0.135314
    H   H169  0.646135  0.479099  0.078407  0.140116
    C   C250  0.413538  0.312739  0.043539  0.065875
    C   C251  0.351403  0.301256  0.037811  -0.084358
    C   C252  0.306699  0.329472  0.057935  -0.344782
    C   C253  0.324010  0.367931  0.084824  0.353753
    C   C254  0.276109  0.398444  0.106835  -0.310878
    C   C255  0.386138  0.376620  0.091977  -0.292955
    C   C256  0.430758  0.348370  0.071743  -0.140789
    H   H170  0.337511  0.270302  0.017200  0.120202
    H   H171  0.258197  0.320926  0.052513  0.146897
    H   H172  0.228888  0.385862  0.097788  0.081006
    H   H173  0.281615  0.449542  0.105408  0.063081
    H   H174  0.281915  0.383115  0.134086  0.077304
    H   H175  0.399977  0.405309  0.113635  0.135315
    H   H176  0.479099  0.353865  0.078407  0.140121
