# Generated by REPEAT Assigner based on pymatgen
data_DB0-m2_o1_o3_f0_nbo.sym.50
_audit_creation_date              2022-05-24
_audit_creation_method            REPEAT_Assigner
_cell_length_a                    21.465823
_cell_length_b                    21.465823
_cell_length_c                    38.614271
_cell_angle_alpha                 90.000000
_cell_angle_beta                  90.000000
_cell_angle_gamma                 90.000000
_cell_volume                      17792.744340
_symmetry_space_group_name_H-M    P1
_symmetry_Int_Tables_number       1
loop_
    _symmetry_equiv_pos_site_id
    _symmetry_equiv_pos_as_xyz
    1  x,y,z
loop_
    _atom_site_type_symbol
    _atom_site_label
    _atom_site_fract_x
    _atom_site_fract_y
    _atom_site_fract_z
    _atom_type_partial_charge
    O   O1    0.588998  0.051682  0.491024  -0.590442
    O   O2    0.948319  0.588998  0.491024  -0.590365
    O   O3    0.411003  0.948319  0.491025  -0.590411
    O   O4    0.051683  0.411003  0.491024  -0.590442
    O   O5    0.588998  0.948319  0.508976  -0.590389
    O   O6    0.948319  0.411003  0.508976  -0.590381
    O   O7    0.411003  0.051683  0.508976  -0.590416
    O   O8    0.051683  0.588998  0.508976  -0.590404
    O   O9    0.088998  0.551682  0.991024  -0.590461
    O   O10   0.448319  0.088998  0.991024  -0.590456
    O   O11   0.911003  0.448319  0.991025  -0.590421
    O   O12   0.551683  0.911003  0.991024  -0.590446
    O   O13   0.088998  0.448319  0.008976  -0.590408
    O   O14   0.448319  0.911003  0.008976  -0.590438
    O   O15   0.911003  0.551683  0.008976  -0.590443
    O   O16   0.551682  0.088998  0.008976  -0.590461
    C   C1    0.618107  0.000001  0.500000  0.694406
    C   C2    0.000001  0.618107  0.500000  0.694356
    C   C3    0.381894  0.000001  0.500000  0.694397
    C   C4    0.000001  0.381894  0.500000  0.694395
    C   C5    0.118107  0.500001  0.000000  0.694473
    C   C6    0.500001  0.118107  0.000000  0.694470
    C   C7    0.881894  0.500001  0.000000  0.694483
    C   C8    0.500001  0.881894  0.000000  0.694486
    O   O17   0.516328  0.051646  0.549576  -0.650421
    O   O18   0.948355  0.516327  0.549576  -0.650393
    O   O19   0.483674  0.948356  0.549576  -0.650393
    O   O20   0.051646  0.483674  0.549576  -0.650413
    O   O21   0.516327  0.948355  0.450424  -0.650377
    O   O22   0.948356  0.483674  0.450424  -0.650393
    O   O23   0.483674  0.051646  0.450424  -0.650407
    O   O24   0.051646  0.516327  0.450424  -0.650409
    O   O25   0.016327  0.551646  0.049576  -0.650408
    O   O26   0.448355  0.016327  0.049576  -0.650392
    O   O27   0.983674  0.448356  0.049576  -0.650398
    O   O28   0.551646  0.983674  0.049576  -0.650403
    O   O29   0.016327  0.448355  0.950424  -0.650404
    O   O30   0.448356  0.983674  0.950424  -0.650415
    O   O31   0.983674  0.551646  0.950424  -0.650414
    O   O32   0.551646  0.016327  0.950424  -0.650418
    C   C9    0.500001  0.000001  0.565767  0.980551
    C   C10   0.000000  0.500001  0.565767  0.980519
    C   C11   0.500001  0.000000  0.434233  0.980530
    C   C12   0.000001  0.500001  0.434233  0.980542
    C   C13   0.000001  0.500001  0.065767  0.980577
    C   C14   0.500000  0.000001  0.065767  0.980587
    C   C15   0.000001  0.500000  0.934233  0.980544
    C   C16   0.500001  0.000001  0.934233  0.980597
    Cu  Cu1   0.500001  0.061063  0.500000  0.947428
    Cu  Cu2   0.938939  0.500001  0.500000  0.947406
    Cu  Cu3   0.500001  0.938938  0.500000  0.947388
    Cu  Cu4   0.061063  0.500001  0.500000  0.947453
    Cu  Cu5   0.000001  0.561063  0.000000  0.947515
    Cu  Cu6   0.438938  0.000001  0.000000  0.947487
    Cu  Cu7   0.000001  0.438938  0.000000  0.947484
    Cu  Cu8   0.561063  0.000001  0.000000  0.947518
    C   C17   0.511302  0.945325  0.878167  0.099824
    C   C18   0.054676  0.511300  0.878167  0.099799
    C   C19   0.488701  0.054676  0.878167  0.099813
    C   C20   0.945325  0.488700  0.878167  0.099813
    C   C21   0.511301  0.054676  0.121834  0.099814
    C   C22   0.054677  0.488701  0.121834  0.099785
    C   C23   0.488700  0.945325  0.121834  0.099827
    C   C24   0.945325  0.511301  0.121834  0.099838
    C   C25   0.011302  0.445325  0.378167  0.099816
    C   C26   0.554676  0.011301  0.378167  0.099808
    C   C27   0.988701  0.554676  0.378167  0.099772
    C   C28   0.445325  0.988700  0.378167  0.099784
    C   C29   0.011301  0.554676  0.621834  0.099756
    C   C30   0.554677  0.988701  0.621834  0.099756
    C   C31   0.988700  0.445325  0.621834  0.099784
    C   C32   0.445326  0.011301  0.621834  0.099799
    C   C33   0.510405  0.945576  0.842430  -0.198385
    C   C34   0.054426  0.510403  0.842430  -0.198381
    C   C35   0.489598  0.054426  0.842430  -0.198382
    C   C36   0.945575  0.489597  0.842430  -0.198386
    C   C37   0.510404  0.054426  0.157570  -0.198360
    C   C38   0.054426  0.489598  0.157570  -0.198340
    C   C39   0.489597  0.945575  0.157570  -0.198342
    C   C40   0.945576  0.510404  0.157570  -0.198351
    C   C41   0.010405  0.445576  0.342430  -0.198374
    C   C42   0.554426  0.010404  0.342430  -0.198387
    C   C43   0.989598  0.554426  0.342430  -0.198370
    C   C44   0.445575  0.989597  0.342430  -0.198368
    C   C45   0.010404  0.554426  0.657570  -0.198343
    C   C46   0.554426  0.989598  0.657570  -0.198339
    C   C47   0.989597  0.445575  0.657570  -0.198337
    C   C48   0.445576  0.010404  0.657570  -0.198341
    H   H1    0.516873  0.902076  0.828857  0.123138
    H   H2    0.097925  0.516872  0.828857  0.123145
    H   H3    0.483129  0.097926  0.828858  0.123143
    H   H4    0.902075  0.483129  0.828858  0.123144
    H   H5    0.516872  0.097925  0.171143  0.123132
    H   H6    0.097926  0.483130  0.171143  0.123123
    H   H7    0.483128  0.902076  0.171143  0.123124
    H   H8    0.902076  0.516873  0.171143  0.123120
    H   H9    0.016873  0.402076  0.328857  0.123140
    H   H10   0.597925  0.016872  0.328857  0.123153
    H   H11   0.983129  0.597926  0.328858  0.123143
    H   H12   0.402076  0.983129  0.328858  0.123143
    H   H13   0.016872  0.597925  0.671143  0.123135
    H   H14   0.597926  0.983129  0.671143  0.123126
    H   H15   0.983128  0.402076  0.671143  0.123125
    H   H16   0.402076  0.016873  0.671143  0.123122
    C   C49   0.500001  0.000001  0.824262  0.040689
    C   C50   0.000000  0.500000  0.824262  0.040680
    C   C51   0.500000  0.000000  0.175739  0.040629
    C   C52   0.000001  0.500001  0.175739  0.040642
    C   C53   0.000001  0.500001  0.324262  0.040678
    C   C54   0.500000  0.000000  0.324262  0.040664
    C   C55   0.000000  0.500000  0.675739  0.040622
    C   C56   0.500001  0.000001  0.675739  0.040634
    C   C57   0.500001  0.000001  0.896330  -0.327570
    C   C58   0.000000  0.500000  0.896330  -0.327538
    C   C59   0.500000  0.000001  0.103671  -0.327570
    C   C60   0.000001  0.500001  0.103671  -0.327570
    C   C61   0.000001  0.500001  0.396330  -0.327548
    C   C62   0.500001  0.000000  0.396330  -0.327544
    C   C63   0.000000  0.500001  0.603671  -0.327496
    C   C64   0.500001  0.000001  0.603671  -0.327522
    C   C65   0.460584  0.039017  0.767844  -0.147280
    C   C66   0.960985  0.460583  0.767844  -0.147275
    C   C67   0.539419  0.960985  0.767844  -0.147279
    C   C68   0.039016  0.539418  0.767844  -0.147295
    C   C69   0.460583  0.960985  0.232156  -0.147314
    C   C70   0.960985  0.539419  0.232156  -0.147319
    C   C71   0.539418  0.039016  0.232156  -0.147325
    C   C72   0.039017  0.460584  0.232156  -0.147317
    C   C73   0.960584  0.539017  0.267844  -0.147295
    C   C74   0.460985  0.960583  0.267844  -0.147295
    C   C75   0.039419  0.460985  0.267844  -0.147296
    C   C76   0.539016  0.039418  0.267844  -0.147312
    C   C77   0.960583  0.460985  0.732156  -0.147327
    C   C78   0.460985  0.039419  0.732156  -0.147335
    C   C79   0.039418  0.539016  0.732156  -0.147338
    C   C80   0.539017  0.960584  0.732156  -0.147334
    H   H17   0.428165  0.069183  0.781111  0.106036
    H   H18   0.930818  0.428165  0.781111  0.106033
    H   H19   0.571837  0.930819  0.781111  0.106043
    H   H20   0.069183  0.571836  0.781111  0.106044
    H   H21   0.428164  0.930818  0.218890  0.106046
    H   H22   0.930819  0.571837  0.218890  0.106055
    H   H23   0.571836  0.069183  0.218890  0.106054
    H   H24   0.069184  0.428165  0.218889  0.106043
    H   H25   0.928165  0.569183  0.281111  0.106039
    H   H26   0.430818  0.928164  0.281111  0.106038
    H   H27   0.071837  0.430819  0.281111  0.106045
    H   H28   0.569183  0.071836  0.281111  0.106046
    H   H29   0.928164  0.430818  0.718890  0.106050
    H   H30   0.430819  0.071837  0.718890  0.106058
    H   H31   0.071836  0.569183  0.718890  0.106055
    H   H32   0.569184  0.928165  0.718890  0.106051
    C   C81   0.500001  0.000001  0.713916  0.099063
    C   C82   0.000000  0.500000  0.713916  0.099072
    C   C83   0.500000  0.000000  0.286084  0.099029
    C   C84   0.000001  0.500001  0.286084  0.099013
    C   C85   0.000001  0.500001  0.213916  0.099057
    C   C86   0.500000  0.000000  0.213916  0.099067
    C   C87   0.000000  0.500000  0.786084  0.099012
    C   C88   0.500001  0.000001  0.786084  0.098998
    C   C89   0.718364  0.945194  0.494602  -0.074142
    C   C90   0.054807  0.718364  0.494602  -0.074150
    C   C91   0.281637  0.054807  0.494602  -0.074151
    C   C92   0.945194  0.281637  0.494602  -0.074148
    C   C93   0.718364  0.054807  0.505398  -0.074352
    C   C94   0.054807  0.281637  0.505398  -0.074358
    C   C95   0.281637  0.945194  0.505399  -0.074295
    C   C96   0.945194  0.718364  0.505398  -0.074157
    C   C97   0.218364  0.445194  0.994602  -0.074086
    C   C98   0.554807  0.218364  0.994602  -0.074246
    C   C99   0.781637  0.554807  0.994602  -0.074211
    C   C100  0.445194  0.781637  0.994602  -0.074271
    C   C101  0.218364  0.554807  0.005398  -0.074227
    C   C102  0.554807  0.781637  0.005398  -0.074279
    C   C103  0.781637  0.445194  0.005399  -0.074271
    C   C104  0.445194  0.218364  0.005398  -0.074299
    H   H33   0.693728  0.902098  0.489961  0.095267
    H   H34   0.097904  0.693728  0.489961  0.095274
    H   H35   0.306274  0.097903  0.489961  0.095271
    H   H36   0.902098  0.306274  0.489960  0.095266
    H   H37   0.693728  0.097903  0.510040  0.095373
    H   H38   0.097903  0.306274  0.510040  0.095375
    H   H39   0.306274  0.902098  0.510040  0.095354
    H   H40   0.902098  0.693728  0.510040  0.095275
    H   H41   0.193728  0.402098  0.989961  0.095260
    H   H42   0.597903  0.193728  0.989961  0.095340
    H   H43   0.806274  0.597903  0.989961  0.095331
    H   H44   0.402098  0.806274  0.989960  0.095350
    H   H45   0.193728  0.597903  0.010040  0.095347
    H   H46   0.597903  0.806274  0.010040  0.095353
    H   H47   0.806274  0.402098  0.010040  0.095350
    H   H48   0.402098  0.193728  0.010040  0.095362
    C   C105  0.782536  0.945568  0.493704  -0.083146
    C   C106  0.054434  0.782536  0.493704  -0.083030
    C   C107  0.217466  0.054434  0.493704  -0.083061
    C   C108  0.945568  0.217466  0.493704  -0.083175
    C   C109  0.782536  0.054434  0.506296  -0.082930
    C   C110  0.054434  0.217466  0.506296  -0.082962
    C   C111  0.217466  0.945568  0.506297  -0.083073
    C   C112  0.945568  0.782536  0.506296  -0.083125
    C   C113  0.282536  0.445568  0.993704  -0.083243
    C   C114  0.554434  0.282536  0.993704  -0.083170
    C   C115  0.717466  0.554434  0.993704  -0.083174
    C   C116  0.445568  0.717466  0.993704  -0.083139
    C   C117  0.282536  0.554434  0.006296  -0.083188
    C   C118  0.554434  0.717466  0.006296  -0.083138
    C   C119  0.717466  0.445568  0.006297  -0.083112
    C   C120  0.445568  0.282536  0.006296  -0.083131
    H   H49   0.807687  0.902819  0.488862  0.107654
    H   H50   0.097183  0.807687  0.488863  0.107565
    H   H51   0.192314  0.097183  0.488862  0.107597
    H   H52   0.902819  0.192314  0.488862  0.107684
    H   H53   0.807687  0.097183  0.511138  0.107538
    H   H54   0.097183  0.192314  0.511138  0.107565
    H   H55   0.192314  0.902819  0.511138  0.107645
    H   H56   0.902819  0.807687  0.511138  0.107644
    H   H57   0.307687  0.402819  0.988862  0.107675
    H   H58   0.597183  0.307687  0.988863  0.107657
    H   H59   0.692314  0.597183  0.988862  0.107654
    H   H60   0.402819  0.692314  0.988862  0.107643
    H   H61   0.307687  0.597183  0.011138  0.107655
    H   H62   0.597183  0.692314  0.011138  0.107643
    H   H63   0.692314  0.402819  0.011138  0.107630
    H   H64   0.402819  0.307687  0.011138  0.107637
    C   C121  0.814602  0.000001  0.500000  -0.091186
    C   C122  0.000001  0.814602  0.500000  -0.091226
    C   C123  0.185400  0.000001  0.500000  -0.091198
    C   C124  0.000001  0.185400  0.500000  -0.091142
    C   C125  0.314602  0.500001  0.000000  -0.090963
    C   C126  0.500001  0.314602  0.000000  -0.091016
    C   C127  0.685400  0.500001  0.000000  -0.091015
    C   C128  0.500001  0.685400  0.000000  -0.091003
    C   C129  0.686102  0.000001  0.500000  0.081177
    C   C130  0.000001  0.686102  0.500000  0.081137
    C   C131  0.313900  0.000001  0.500000  0.081172
    C   C132  0.000001  0.313900  0.500000  0.081185
    C   C133  0.186102  0.500001  0.000000  0.081103
    C   C134  0.500001  0.186102  0.000000  0.081221
    C   C135  0.813900  0.500001  0.000000  0.081147
    C   C136  0.500001  0.813900  0.000000  0.081185
    O   O33   0.980424  0.088537  0.471809  -0.649013
    O   O34   0.911465  0.980424  0.471809  -0.648991
    O   O35   0.019577  0.911464  0.471810  -0.649015
    O   O36   0.088537  0.019577  0.471810  -0.649035
    O   O37   0.980424  0.911464  0.528191  -0.649003
    O   O38   0.911465  0.019577  0.528191  -0.648951
    O   O39   0.019577  0.088537  0.528191  -0.648980
    O   O40   0.088537  0.980424  0.528191  -0.649028
    O   O41   0.480424  0.588537  0.971809  -0.648953
    O   O42   0.411464  0.480424  0.971809  -0.648958
    O   O43   0.519577  0.411464  0.971810  -0.648966
    O   O44   0.588537  0.519577  0.971810  -0.648964
    O   O45   0.480424  0.411464  0.028191  -0.648969
    O   O46   0.411464  0.519577  0.028191  -0.648947
    O   O47   0.519577  0.588537  0.028191  -0.648944
    O   O48   0.588537  0.480424  0.028191  -0.648964
    C   C137  0.000001  0.117573  0.500000  0.819215
    C   C138  0.882429  0.000001  0.500000  0.819218
    C   C139  0.000001  0.882429  0.500000  0.819347
    C   C140  0.117573  0.000001  0.500000  0.819324
    C   C141  0.500001  0.617573  0.000000  0.819092
    C   C142  0.382429  0.500001  0.000000  0.819118
    C   C143  0.500001  0.382429  0.000000  0.819156
    C   C144  0.617573  0.500001  0.000000  0.819132
    Cu  Cu9   0.000001  0.000001  0.466428  1.011819
    Cu  Cu10  0.000001  0.000001  0.533573  1.011926
    Cu  Cu11  0.500001  0.500001  0.966428  1.011960
    Cu  Cu12  0.500001  0.500001  0.033573  1.011876
    C   C145  0.525511  0.885174  0.896009  -0.059236
    C   C146  0.466081  0.848268  0.901499  0.214751
    C   C147  0.481773  0.780035  0.906451  -0.206373
    H   H65   0.499619  0.760348  0.881823  0.049001
    H   H66   0.517799  0.775044  0.926819  0.011434
    H   H67   0.439202  0.754342  0.914227  0.037197
    H   H68   0.441437  0.865900  0.924728  -0.047251
    H   H69   0.435368  0.853178  0.878578  -0.038313
    H   H70   0.557364  0.857789  0.879314  0.031518
    H   H71   0.549713  0.892355  0.920999  -0.006752
    C   C148  0.114827  0.525509  0.896009  -0.059260
    C   C149  0.151733  0.466080  0.901499  0.214773
    C   C150  0.219967  0.481771  0.906451  -0.206400
    H   H72   0.239653  0.499617  0.881823  0.049008
    H   H73   0.224957  0.517797  0.926819  0.011431
    H   H74   0.245659  0.439200  0.914227  0.037213
    H   H75   0.134101  0.441436  0.924728  -0.047251
    H   H76   0.146823  0.435366  0.878578  -0.038318
    H   H77   0.142213  0.557363  0.879314  0.031527
    H   H78   0.107646  0.549712  0.920999  -0.006746
    C   C151  0.474492  0.114827  0.896009  -0.059234
    C   C152  0.533921  0.151734  0.901500  0.214781
    C   C153  0.518230  0.219967  0.906451  -0.206380
    H   H79   0.500383  0.239654  0.881823  0.049007
    H   H80   0.482204  0.224957  0.926820  0.011421
    H   H81   0.560801  0.245659  0.914227  0.037202
    H   H82   0.558565  0.134102  0.924728  -0.047262
    H   H83   0.564634  0.146824  0.878578  -0.038326
    H   H84   0.442638  0.142213  0.879314  0.031517
    H   H85   0.450289  0.107646  0.920999  -0.006765
    C   C154  0.885174  0.474491  0.896009  -0.059209
    C   C155  0.848268  0.533921  0.901499  0.214734
    C   C156  0.780034  0.518229  0.906451  -0.206374
    H   H86   0.760347  0.500382  0.881823  0.049005
    H   H87   0.775044  0.482203  0.926820  0.011422
    H   H88   0.754342  0.560800  0.914227  0.037201
    H   H89   0.865900  0.558565  0.924728  -0.047246
    H   H90   0.853177  0.564634  0.878578  -0.038306
    H   H91   0.857788  0.442637  0.879314  0.031512
    H   H92   0.892355  0.450288  0.920999  -0.006764
    C   C157  0.525510  0.114827  0.103992  -0.059252
    C   C158  0.466080  0.151733  0.098501  0.214770
    C   C159  0.481772  0.219967  0.093549  -0.206359
    H   H93   0.499618  0.239654  0.118178  0.048997
    H   H94   0.517798  0.224957  0.073181  0.011421
    H   H95   0.439201  0.245659  0.085774  0.037201
    H   H96   0.441436  0.134101  0.075272  -0.047262
    H   H97   0.435367  0.146824  0.121422  -0.038319
    H   H98   0.557363  0.142213  0.120687  0.031523
    H   H99   0.549713  0.107646  0.079002  -0.006750
    C   C160  0.114828  0.474492  0.103991  -0.059199
    C   C161  0.151734  0.533922  0.098501  0.214733
    C   C162  0.219967  0.518230  0.093549  -0.206319
    H   H100  0.239654  0.500384  0.118177  0.048991
    H   H101  0.224957  0.482204  0.073181  0.011408
    H   H102  0.245659  0.560801  0.085773  0.037187
    H   H103  0.134102  0.558566  0.075272  -0.047249
    H   H104  0.146824  0.564635  0.121422  -0.038313
    H   H105  0.142213  0.442638  0.120686  0.031512
    H   H106  0.107646  0.450289  0.079001  -0.006771
    C   C163  0.474491  0.885174  0.103991  -0.059290
    C   C164  0.533920  0.848268  0.098501  0.214799
    C   C165  0.518229  0.780034  0.093549  -0.206371
    H   H107  0.500382  0.760347  0.118177  0.048999
    H   H108  0.482203  0.775044  0.073181  0.011428
    H   H109  0.560800  0.754342  0.085774  0.037198
    H   H110  0.558565  0.865900  0.075273  -0.047260
    H   H111  0.564633  0.853177  0.121422  -0.038323
    H   H112  0.442637  0.857788  0.120686  0.031522
    H   H113  0.450288  0.892355  0.079001  -0.006735
    C   C166  0.885174  0.525510  0.103992  -0.059273
    C   C167  0.848268  0.466081  0.098501  0.214793
    C   C168  0.780035  0.481772  0.093550  -0.206383
    H   H114  0.760348  0.499619  0.118178  0.049008
    H   H115  0.775044  0.517798  0.073181  0.011422
    H   H116  0.754342  0.439201  0.085774  0.037197
    H   H117  0.865900  0.441436  0.075273  -0.047248
    H   H118  0.853178  0.435368  0.121422  -0.038328
    H   H119  0.857789  0.557364  0.120687  0.031525
    H   H120  0.892355  0.549713  0.079002  -0.006743
    C   C169  0.025511  0.385174  0.396009  -0.059283
    C   C170  0.966081  0.348268  0.401499  0.214743
    C   C171  0.981773  0.280035  0.406451  -0.206338
    H   H121  0.999620  0.260348  0.381823  0.048996
    H   H122  0.017799  0.275044  0.426819  0.011421
    H   H123  0.939202  0.254342  0.414227  0.037185
    H   H124  0.941437  0.365900  0.424728  -0.047235
    H   H125  0.935368  0.353178  0.378578  -0.038313
    H   H126  0.057365  0.357789  0.379314  0.031529
    H   H127  0.049713  0.392355  0.420999  -0.006723
    C   C172  0.614827  0.025510  0.396009  -0.059293
    C   C173  0.651733  0.966080  0.401499  0.214765
    C   C174  0.719967  0.981772  0.406451  -0.206331
    H   H128  0.739654  0.999618  0.381823  0.048993
    H   H129  0.724957  0.017798  0.426819  0.011410
    H   H130  0.745659  0.939201  0.414227  0.037193
    H   H131  0.634102  0.941436  0.424728  -0.047252
    H   H132  0.646824  0.935367  0.378578  -0.038319
    H   H133  0.642213  0.057363  0.379314  0.031531
    H   H134  0.607646  0.049713  0.420999  -0.006722
    C   C175  0.974492  0.614828  0.396009  -0.059198
    C   C176  0.033921  0.651734  0.401500  0.214770
    C   C177  0.018230  0.719967  0.406451  -0.206397
    H   H135  0.000383  0.739654  0.381823  0.049014
    H   H136  0.982204  0.724957  0.426820  0.011411
    H   H137  0.060801  0.745659  0.414227  0.037215
    H   H138  0.058565  0.634102  0.424728  -0.047248
    H   H139  0.064634  0.646824  0.378578  -0.038328
    H   H140  0.942638  0.642213  0.379314  0.031515
    H   H141  0.950289  0.607646  0.420999  -0.006770
    C   C178  0.385174  0.974491  0.396009  -0.059229
    C   C179  0.348268  0.033921  0.401499  0.214751
    C   C180  0.280034  0.018229  0.406451  -0.206402
    H   H142  0.260347  0.000382  0.381823  0.049014
    H   H143  0.275044  0.982203  0.426820  0.011424
    H   H144  0.254342  0.060800  0.414227  0.037211
    H   H145  0.365900  0.058565  0.424728  -0.047244
    H   H146  0.353177  0.064633  0.378578  -0.038309
    H   H147  0.357788  0.942637  0.379314  0.031518
    H   H148  0.392355  0.950288  0.420999  -0.006745
    C   C181  0.025510  0.614827  0.603992  -0.059226
    C   C182  0.966080  0.651733  0.598501  0.214717
    C   C183  0.981772  0.719967  0.593549  -0.206299
    H   H149  0.999618  0.739654  0.618178  0.048986
    H   H150  0.017798  0.724957  0.573181  0.011391
    H   H151  0.939201  0.745659  0.585774  0.037193
    H   H152  0.941436  0.634102  0.575272  -0.047236
    H   H153  0.935367  0.646824  0.621422  -0.038313
    H   H154  0.057363  0.642213  0.620687  0.031525
    H   H155  0.049713  0.607646  0.579002  -0.006749
    C   C184  0.614828  0.974492  0.603991  -0.059212
    C   C185  0.651734  0.033921  0.598501  0.214777
    C   C186  0.719967  0.018230  0.593549  -0.206374
    H   H156  0.739654  0.000383  0.618177  0.049002
    H   H157  0.724957  0.982204  0.573181  0.011414
    H   H158  0.745659  0.060801  0.585773  0.037207
    H   H159  0.634102  0.058566  0.575272  -0.047260
    H   H160  0.646824  0.064634  0.621422  -0.038323
    H   H161  0.642213  0.942638  0.620686  0.031517
    H   H162  0.607646  0.950289  0.579001  -0.006760
    C   C187  0.974491  0.385174  0.603991  -0.059263
    C   C188  0.033920  0.348268  0.598501  0.214780
    C   C189  0.018228  0.280034  0.593549  -0.206367
    H   H163  0.000382  0.260347  0.618177  0.049005
    H   H164  0.982203  0.275044  0.573181  0.011419
    H   H165  0.060799  0.254342  0.585774  0.037197
    H   H166  0.058565  0.365900  0.575273  -0.047262
    H   H167  0.064633  0.353177  0.621422  -0.038319
    H   H168  0.942637  0.357788  0.620686  0.031521
    H   H169  0.950288  0.392355  0.579001  -0.006738
    C   C190  0.385174  0.025510  0.603992  -0.059262
    C   C191  0.348268  0.966081  0.598501  0.214755
    C   C192  0.280035  0.981772  0.593550  -0.206313
    H   H170  0.260348  0.999619  0.618178  0.048997
    H   H171  0.275044  0.017798  0.573181  0.011396
    H   H172  0.254342  0.939201  0.585774  0.037180
    H   H173  0.365900  0.941436  0.575273  -0.047248
    H   H174  0.353178  0.935368  0.621422  -0.038323
    H   H175  0.357789  0.057364  0.620687  0.031529
    H   H176  0.392355  0.049713  0.579002  -0.006747
