# Generated by REPEAT Assigner based on pymatgen
data_DB0-m2_o1_o3_f0_nbo.sym.79
_audit_creation_date              2022-05-24
_audit_creation_method            REPEAT_Assigner
_cell_length_a                    21.502161
_cell_length_b                    21.502162
_cell_length_c                    38.412072
_cell_angle_alpha                 90.000000
_cell_angle_beta                  90.000000
_cell_angle_gamma                 90.000000
_cell_volume                      17759.550983
_symmetry_space_group_name_H-M    P1
_symmetry_Int_Tables_number       1
loop_
    _symmetry_equiv_pos_site_id
    _symmetry_equiv_pos_as_xyz
    1  x,y,z
loop_
    _atom_site_type_symbol
    _atom_site_label
    _atom_site_fract_x
    _atom_site_fract_y
    _atom_site_fract_z
    _atom_type_partial_charge
    O   O1    0.588551  0.051146  0.490129  -0.538953
    O   O2    0.948842  0.588549  0.490135  -0.538813
    O   O3    0.411444  0.948837  0.490134  -0.539111
    O   O4    0.051152  0.411442  0.490130  -0.539076
    O   O5    0.588553  0.948837  0.509873  -0.538992
    O   O6    0.948845  0.411441  0.509879  -0.539134
    O   O7    0.411445  0.051146  0.509879  -0.539039
    O   O8    0.051154  0.588549  0.509875  -0.538912
    O   O9    0.088554  0.551164  0.990137  -0.538764
    O   O10   0.448845  0.088559  0.990131  -0.538668
    O   O11   0.911446  0.448853  0.990131  -0.538607
    O   O12   0.551156  0.911451  0.990136  -0.538477
    O   O13   0.088553  0.448853  0.009878  -0.538694
    O   O14   0.448842  0.911451  0.009873  -0.538486
    O   O15   0.911444  0.551164  0.009873  -0.538676
    O   O16   0.551153  0.088560  0.009877  -0.538669
    C   C1    0.617750  0.999992  0.500000  0.478570
    C   C2    0.999998  0.617747  0.500005  0.478269
    C   C3    0.382247  0.999991  0.500008  0.478723
    C   C4    0.999998  0.382244  0.500004  0.478766
    C   C5    0.117752  0.500009  0.000009  0.477151
    C   C6    0.499999  0.117757  0.000004  0.477234
    C   C7    0.882247  0.500008  0.000001  0.477068
    C   C8    0.499999  0.882252  0.000004  0.476728
    O   O17   0.517762  0.051173  0.549670  -0.652175
    O   O18   0.948823  0.517754  0.549674  -0.652280
    O   O19   0.482245  0.948809  0.549671  -0.652177
    O   O20   0.051187  0.482237  0.549669  -0.652372
    O   O21   0.517752  0.948810  0.450337  -0.652256
    O   O22   0.948810  0.482237  0.450340  -0.652127
    O   O23   0.482235  0.051174  0.450338  -0.652359
    O   O24   0.051173  0.517754  0.450336  -0.652110
    O   O25   0.017750  0.551191  0.049672  -0.652052
    O   O26   0.448809  0.017761  0.049669  -0.652031
    O   O27   0.982238  0.448826  0.049671  -0.651954
    O   O28   0.551174  0.982249  0.049674  -0.652032
    O   O29   0.017760  0.448826  0.950338  -0.652162
    O   O30   0.448824  0.982249  0.950335  -0.652187
    O   O31   0.982248  0.551190  0.950337  -0.652175
    O   O32   0.551189  0.017761  0.950340  -0.652140
    C   C9    0.500005  0.999991  0.565928  1.082442
    C   C10   0.000007  0.499996  0.565929  1.083033
    C   C11   0.499992  0.999992  0.434080  1.083138
    C   C12   0.999989  0.499996  0.434080  1.082552
    C   C13   0.999993  0.500009  0.065929  1.083115
    C   C14   0.499989  0.000005  0.065929  1.083332
    C   C15   0.000005  0.500008  0.934080  1.083698
    C   C16   0.500010  0.000004  0.934079  1.083498
    Cu  Cu1   0.499998  0.060684  0.500004  0.916996
    Cu  Cu2   0.939306  0.499995  0.500007  0.917212
    Cu  Cu3   0.499999  0.939299  0.500004  0.917096
    Cu  Cu4   0.060691  0.499995  0.500002  0.916974
    Cu  Cu5   0.999999  0.560701  0.000005  0.916713
    Cu  Cu6   0.439306  0.000005  0.000001  0.916673
    Cu  Cu7   0.999999  0.439315  0.000005  0.916605
    Cu  Cu8   0.560692  0.000005  0.000007  0.916793
    C   C17   0.495926  0.944586  0.878050  0.332235
    C   C18   0.055423  0.495919  0.878051  0.332642
    C   C19   0.504111  0.055412  0.878048  0.331904
    C   C20   0.944596  0.504096  0.878048  0.331968
    C   C21   0.495887  0.055413  0.121960  0.332120
    C   C22   0.055402  0.504104  0.121961  0.331547
    C   C23   0.504074  0.944587  0.121958  0.332261
    C   C24   0.944575  0.495915  0.121959  0.331446
    C   C25   0.995959  0.444583  0.378049  0.331443
    C   C26   0.555406  0.995969  0.378048  0.331732
    C   C27   0.004004  0.555419  0.378051  0.331393
    C   C28   0.444570  0.004016  0.378051  0.332368
    C   C29   0.995987  0.555417  0.621958  0.331207
    C   C30   0.555427  0.004014  0.621957  0.330910
    C   C31   0.004044  0.444582  0.621961  0.331289
    C   C32   0.444592  0.995966  0.621960  0.330786
    C   C33   0.496454  0.944633  0.842169  -0.182138
    C   C34   0.055375  0.496444  0.842169  -0.182244
    C   C35   0.503590  0.055359  0.842166  -0.182008
    C   C36   0.944648  0.503571  0.842167  -0.181867
    C   C37   0.496408  0.055360  0.157842  -0.182182
    C   C38   0.055349  0.503580  0.157842  -0.181979
    C   C39   0.503545  0.944635  0.157839  -0.181888
    C   C40   0.944623  0.496440  0.157840  -0.181565
    C   C41   0.996478  0.444636  0.342168  -0.181666
    C   C42   0.555352  0.996491  0.342167  -0.182129
    C   C43   0.003477  0.555371  0.342170  -0.181484
    C   C44   0.444618  0.003493  0.342169  -0.182268
    C   C45   0.996513  0.555369  0.657840  -0.182271
    C   C46   0.555380  0.003491  0.657839  -0.181859
    C   C47   0.003525  0.444635  0.657842  -0.182154
    C   C48   0.444646  0.996488  0.657841  -0.181978
    H   H1    0.493057  0.900989  0.828343  0.071340
    H   H2    0.099019  0.493051  0.828343  0.071387
    H   H3    0.506987  0.098999  0.828338  0.071298
    H   H4    0.901008  0.506964  0.828338  0.071243
    H   H5    0.493011  0.099001  0.171670  0.071332
    H   H6    0.098990  0.506978  0.171671  0.071324
    H   H7    0.506942  0.900991  0.171666  0.071226
    H   H8    0.900981  0.493042  0.171667  0.071207
    H   H9    0.993136  0.400991  0.328339  0.071110
    H   H10   0.598999  0.993148  0.328339  0.071249
    H   H11   0.006819  0.599019  0.328344  0.071092
    H   H12   0.400972  0.006836  0.328342  0.071250
    H   H13   0.993166  0.599015  0.671667  0.071361
    H   H14   0.599027  0.006834  0.671666  0.071194
    H   H15   0.006873  0.400989  0.671670  0.071206
    H   H16   0.401000  0.993144  0.671670  0.071288
    C   C49   0.500023  0.999994  0.824104  -0.061102
    C   C50   0.000013  0.500008  0.824105  -0.061177
    C   C51   0.499976  0.999996  0.175904  -0.061198
    C   C52   0.999985  0.500010  0.175905  -0.060915
    C   C53   0.999977  0.500005  0.324105  -0.060691
    C   C54   0.499984  0.999992  0.324105  -0.060308
    C   C55   0.000020  0.500003  0.675904  -0.059886
    C   C56   0.500014  0.999989  0.675903  -0.059872
    C   C57   0.500016  0.000000  0.896083  -0.458976
    C   C58   0.000008  0.500007  0.896084  -0.459422
    C   C59   0.499982  0.000002  0.103925  -0.459149
    C   C60   0.999990  0.500009  0.103925  -0.458415
    C   C61   0.999983  0.499999  0.396084  -0.458288
    C   C62   0.499989  0.999992  0.396084  -0.459000
    C   C63   0.000013  0.499998  0.603925  -0.457721
    C   C64   0.500008  0.999990  0.603924  -0.457242
    C   C65   0.461143  0.039592  0.767941  -0.239643
    C   C66   0.960420  0.461125  0.767941  -0.239637
    C   C67   0.538897  0.960391  0.767940  -0.239399
    C   C68   0.039612  0.538888  0.767942  -0.239456
    C   C69   0.461103  0.960392  0.232068  -0.239360
    C   C70   0.960378  0.538882  0.232068  -0.239255
    C   C71   0.538854  0.039596  0.232067  -0.239400
    C   C72   0.039585  0.461135  0.232069  -0.239408
    C   C73   0.961048  0.539554  0.267942  -0.238777
    C   C74   0.460432  0.961064  0.267942  -0.239148
    C   C75   0.038910  0.460460  0.267942  -0.238584
    C   C76   0.539529  0.038922  0.267941  -0.238933
    C   C77   0.961094  0.460451  0.732067  -0.238680
    C   C78   0.460468  0.038918  0.732067  -0.238590
    C   C79   0.038941  0.539560  0.732068  -0.239094
    C   C80   0.539568  0.961063  0.732067  -0.238949
    H   H17   0.430015  0.070388  0.781758  0.159067
    H   H18   0.929626  0.429993  0.781758  0.159079
    H   H19   0.570026  0.929597  0.781758  0.158998
    H   H20   0.070402  0.570019  0.781761  0.159045
    H   H21   0.429975  0.929597  0.218250  0.159022
    H   H22   0.929580  0.570009  0.218251  0.158941
    H   H23   0.569982  0.070393  0.218250  0.159027
    H   H24   0.070383  0.430009  0.218250  0.158983
    H   H25   0.929877  0.570305  0.281760  0.158990
    H   H26   0.429678  0.929893  0.281759  0.159113
    H   H27   0.070082  0.429707  0.281760  0.158905
    H   H28   0.570283  0.070091  0.281759  0.158983
    H   H29   0.929930  0.429693  0.718248  0.158928
    H   H30   0.429713  0.070086  0.718249  0.158899
    H   H31   0.070108  0.570319  0.718251  0.159089
    H   H32   0.570322  0.929893  0.718249  0.159054
    C   C81   0.500017  0.999990  0.713992  0.302198
    C   C82   0.000018  0.500005  0.713993  0.302526
    C   C83   0.499982  0.999993  0.286016  0.302808
    C   C84   0.999978  0.500007  0.286017  0.302447
    C   C85   0.999982  0.500009  0.213993  0.303257
    C   C86   0.499977  0.999995  0.213993  0.303693
    C   C87   0.000015  0.500007  0.786016  0.303841
    C   C88   0.500021  0.999992  0.786016  0.303835
    C   C89   0.718281  0.949823  0.513378  0.028440
    C   C90   0.050182  0.718277  0.513368  0.028139
    C   C91   0.281719  0.050158  0.513394  0.028426
    C   C92   0.949846  0.281714  0.513403  0.028318
    C   C93   0.718278  0.050160  0.486617  0.028485
    C   C94   0.050151  0.281715  0.486605  0.028411
    C   C95   0.281716  0.949824  0.486628  0.028380
    C   C96   0.949814  0.718277  0.486642  0.028263
    C   C97   0.218281  0.449802  0.013347  0.026478
    C   C98   0.550191  0.218288  0.013358  0.026292
    C   C99   0.781715  0.550217  0.013331  0.026921
    C   C100  0.449774  0.781722  0.013319  0.026515
    C   C101  0.218283  0.550216  0.986676  0.026592
    C   C102  0.550225  0.781722  0.986690  0.026454
    C   C103  0.781718  0.449800  0.986664  0.026826
    C   C104  0.449808  0.218287  0.986650  0.026276
    H   H33   0.694130  0.910064  0.523988  0.074671
    H   H34   0.089952  0.694125  0.523964  0.074724
    H   H35   0.305871  0.089915  0.524005  0.074732
    H   H36   0.910099  0.305866  0.524027  0.074927
    H   H37   0.694126  0.089919  0.476008  0.074659
    H   H38   0.089898  0.305867  0.475981  0.074835
    H   H39   0.305867  0.910067  0.476016  0.074700
    H   H40   0.910043  0.694125  0.476046  0.074637
    H   H41   0.194129  0.410013  0.023921  0.075106
    H   H42   0.589967  0.194136  0.023947  0.075150
    H   H43   0.805865  0.590008  0.023905  0.074974
    H   H44   0.409970  0.805873  0.023876  0.075014
    H   H45   0.194133  0.590005  0.976101  0.075014
    H   H46   0.590029  0.805873  0.976133  0.075023
    H   H47   0.805869  0.410009  0.976091  0.075002
    H   H48   0.410031  0.194136  0.976061  0.075159
    C   C105  0.782368  0.950169  0.513634  -0.204525
    C   C106  0.049837  0.782364  0.513624  -0.204273
    C   C107  0.217631  0.049812  0.513653  -0.204716
    C   C108  0.950193  0.217627  0.513662  -0.204812
    C   C109  0.782366  0.049815  0.486358  -0.204520
    C   C110  0.049804  0.217627  0.486346  -0.204649
    C   C111  0.217629  0.950171  0.486372  -0.204603
    C   C112  0.950159  0.782364  0.486386  -0.204343
    C   C113  0.282369  0.450144  0.013602  -0.203199
    C   C114  0.549847  0.282375  0.013613  -0.202944
    C   C115  0.717627  0.549875  0.013583  -0.203585
    C   C116  0.450115  0.717634  0.013571  -0.203179
    C   C117  0.282371  0.549873  0.986423  -0.203241
    C   C118  0.549884  0.717634  0.986438  -0.203225
    C   C119  0.717630  0.450142  0.986408  -0.203495
    C   C120  0.450151  0.282375  0.986395  -0.202958
    H   H49   0.807566  0.911040  0.524273  0.116217
    H   H50   0.088980  0.807562  0.524249  0.116099
    H   H51   0.192435  0.088941  0.524294  0.116194
    H   H52   0.911076  0.192429  0.524316  0.116218
    H   H53   0.807563  0.088946  0.475719  0.116159
    H   H54   0.088921  0.192430  0.475692  0.116147
    H   H55   0.192430  0.911043  0.475730  0.116216
    H   H56   0.911016  0.807562  0.475761  0.116122
    H   H57   0.307565  0.410980  0.024204  0.115956
    H   H58   0.588996  0.307573  0.024230  0.115956
    H   H59   0.692429  0.589038  0.024184  0.116091
    H   H60   0.410937  0.692437  0.024155  0.115932
    H   H61   0.307569  0.589035  0.975821  0.115993
    H   H62   0.589062  0.692436  0.975854  0.115941
    H   H63   0.692433  0.410977  0.975808  0.116000
    H   H64   0.411002  0.307573  0.975777  0.115943
    C   C121  0.814370  0.999992  0.499996  -0.018860
    C   C122  0.999998  0.814368  0.500005  -0.019070
    C   C123  0.185626  0.999992  0.500013  -0.018620
    C   C124  0.999998  0.185624  0.500004  -0.018474
    C   C125  0.314373  0.500008  0.000013  -0.020018
    C   C126  0.499999  0.314379  0.000004  -0.020153
    C   C127  0.685625  0.500008  0.999995  -0.019764
    C   C128  0.499999  0.685631  0.000005  -0.020055
    C   C129  0.685874  0.999991  0.499998  0.059457
    C   C130  0.999998  0.685871  0.500005  0.059925
    C   C131  0.314123  0.999991  0.500010  0.059557
    C   C132  0.999999  0.314119  0.500004  0.059413
    C   C133  0.185876  0.500009  0.000011  0.062377
    C   C134  0.499999  0.185882  0.000004  0.062281
    C   C135  0.814122  0.500008  0.999998  0.062056
    C   C136  0.500000  0.814128  0.000004  0.062674
    O   O33   0.983103  0.088945  0.471240  -0.669051
    O   O34   0.911054  0.983095  0.471237  -0.669057
    O   O35   0.016904  0.911046  0.471242  -0.669232
    O   O36   0.088953  0.016895  0.471246  -0.669010
    O   O37   0.983093  0.911047  0.528767  -0.669295
    O   O38   0.911044  0.016896  0.528763  -0.669073
    O   O39   0.016894  0.088945  0.528768  -0.669129
    O   O40   0.088943  0.983095  0.528772  -0.669187
    O   O41   0.483083  0.588952  0.971244  -0.669482
    O   O42   0.411046  0.483095  0.971248  -0.669240
    O   O43   0.516904  0.411058  0.971241  -0.669310
    O   O44   0.588941  0.516915  0.971238  -0.669286
    O   O45   0.483094  0.411057  0.028767  -0.669339
    O   O46   0.411057  0.516915  0.028771  -0.669407
    O   O47   0.516915  0.588952  0.028765  -0.669538
    O   O48   0.588952  0.483094  0.028761  -0.669330
    C   C137  0.999999  0.117918  0.500004  0.879757
    C   C138  0.882076  0.999995  0.499998  0.879825
    C   C139  0.999998  0.882073  0.500005  0.880189
    C   C140  0.117921  0.999995  0.500010  0.879823
    C   C141  0.499999  0.617926  0.000005  0.880683
    C   C142  0.382078  0.500005  0.000011  0.880379
    C   C143  0.499999  0.382084  0.000004  0.880255
    C   C144  0.617920  0.500005  0.999998  0.880324
    Cu  Cu9   0.000004  0.999995  0.465986  1.021878
    Cu  Cu10  0.999993  0.999996  0.534022  1.021976
    Cu  Cu11  0.499993  0.500005  0.965987  1.022168
    Cu  Cu12  0.500005  0.500005  0.034021  1.022188
    S   S1    0.491606  0.872238  0.900875  -0.230443
    C   C145  0.575433  0.862356  0.900346  -0.062220
    H   H65   0.597190  0.894575  0.919303  0.037581
    H   H66   0.593651  0.871529  0.873842  0.022652
    H   H67   0.586843  0.813757  0.907575  0.089772
    S   S2    0.127771  0.491611  0.900876  -0.230652
    C   C146  0.137645  0.575439  0.900341  -0.062195
    H   H68   0.105443  0.597194  0.919307  0.037648
    H   H69   0.128442  0.593654  0.873839  0.022604
    H   H70   0.186250  0.586854  0.907553  0.089779
    S   S3    0.508417  0.127763  0.900869  -0.230319
    C   C147  0.424590  0.137642  0.900326  -0.062074
    H   H71   0.402829  0.105457  0.919299  0.037607
    H   H72   0.406380  0.128419  0.873825  0.022642
    H   H73   0.413177  0.186255  0.907525  0.089679
    S   S4    0.872245  0.508403  0.900870  -0.230343
    C   C148  0.862371  0.424575  0.900335  -0.062251
    H   H74   0.894570  0.402820  0.919302  0.037613
    H   H75   0.871576  0.406361  0.873833  0.022678
    H   H76   0.813764  0.413160  0.907545  0.089761
    S   S5    0.491581  0.127764  0.099139  -0.230340
    C   C149  0.575408  0.137645  0.099682  -0.061986
    H   H77   0.597170  0.105459  0.080710  0.037540
    H   H78   0.593617  0.128423  0.126183  0.022655
    H   H79   0.586821  0.186257  0.092483  0.089634
    S   S6    0.127753  0.508417  0.099140  -0.230166
    C   C150  0.137636  0.424590  0.099678  -0.062552
    H   H80   0.105436  0.402829  0.080714  0.037657
    H   H81   0.128437  0.406379  0.126181  0.022832
    H   H82   0.186242  0.413180  0.092466  0.089803
    S   S7    0.508393  0.872240  0.099133  -0.230552
    C   C151  0.424566  0.862356  0.099663  -0.061735
    H   H83   0.402809  0.894576  0.080707  0.037470
    H   H84   0.406349  0.871528  0.126168  0.022529
    H   H85   0.413157  0.813758  0.092433  0.089622
    S   S8    0.872228  0.491600  0.099134  -0.230396
    C   C152  0.862344  0.575426  0.099670  -0.061709
    H   H86   0.894550  0.597187  0.080708  0.037486
    H   H87   0.871534  0.593640  0.126174  0.022532
    H   H88   0.813740  0.586837  0.092452  0.089598
    S   S9    0.991742  0.372229  0.400872  -0.229845
    C   C153  0.075581  0.362451  0.400326  -0.063092
    H   H89   0.097298  0.394601  0.419333  0.038112
    H   H90   0.093789  0.371784  0.373837  0.022733
    H   H91   0.087051  0.313829  0.407474  0.089954
    S   S10   0.627760  0.991745  0.400871  -0.229892
    C   C154  0.637541  0.075584  0.400330  -0.063322
    H   H92   0.605376  0.097300  0.419330  0.038185
    H   H93   0.628232  0.093793  0.373839  0.022786
    H   H94   0.686158  0.087051  0.407492  0.090049
    S   S11   0.008233  0.627769  0.400878  -0.229963
    C   C155  0.924394  0.637550  0.400344  -0.062872
    H   H95   0.902681  0.605369  0.419337  0.038096
    H   H96   0.906179  0.628263  0.373852  0.022574
    H   H97   0.912927  0.686160  0.407520  0.089972
    S   S12   0.372219  0.008240  0.400877  -0.230317
    C   C156  0.362438  0.924402  0.400337  -0.062166
    H   H98   0.394605  0.902685  0.419335  0.037931
    H   H99   0.371744  0.906191  0.373845  0.022356
    H   H100  0.313822  0.912934  0.407501  0.089751
    S   S13   0.991751  0.627768  0.599133  -0.229909
    C   C157  0.075588  0.637559  0.599668  -0.063101
    H   H101  0.097308  0.605374  0.580680  0.038111
    H   H102  0.093800  0.628284  0.626163  0.022651
    H   H103  0.087050  0.686168  0.592488  0.090057
    S   S14   0.627778  0.008240  0.599131  -0.229896
    C   C158  0.637561  0.924401  0.599671  -0.062859
    H   H104  0.605390  0.902684  0.580675  0.038085
    H   H105  0.628261  0.906191  0.626163  0.022586
    H   H106  0.686175  0.912935  0.592504  0.089962
    S   S15   0.008268  0.372228  0.599138  -0.229871
    C   C159  0.924430  0.362440  0.599686  -0.063044
    H   H107  0.902706  0.394594  0.580683  0.038015
    H   H108  0.906226  0.371760  0.626177  0.022736
    H   H109  0.912965  0.313819  0.592532  0.089983
    S   S16   0.372237  0.991742  0.599137  -0.229659
    C   C160  0.362455  0.075581  0.599680  -0.063952
    H   H110  0.394620  0.097299  0.580681  0.038312
    H   H111  0.371764  0.093789  0.626172  0.022945
    H   H112  0.313839  0.087048  0.592518  0.090263
