# Generated by REPEAT Assigner based on pymatgen
data_DB0-m2_o1_o3_f0_nbo.sym.89_sqe
_audit_creation_date              2022-05-24
_audit_creation_method            REPEAT_Assigner
_cell_length_a                    21.616059
_cell_length_b                    21.616059
_cell_length_c                    38.572794
_cell_angle_alpha                 90.000000
_cell_angle_beta                  90.000000
_cell_angle_gamma                 90.000000
_cell_volume                      18023.292286
_symmetry_space_group_name_H-M    P1
_symmetry_Int_Tables_number       1
loop_
    _symmetry_equiv_pos_site_id
    _symmetry_equiv_pos_as_xyz
    1  x,y,z
loop_
    _atom_site_type_symbol
    _atom_site_label
    _atom_site_fract_x
    _atom_site_fract_y
    _atom_site_fract_z
    _atom_type_partial_charge
    O   O1    0.588104  0.050905  0.509812  -0.570986
    O   O2    0.949095  0.588104  0.509812  -0.571000
    O   O3    0.411896  0.949095  0.509812  -0.570990
    O   O4    0.050905  0.411896  0.509812  -0.570979
    O   O5    0.588104  0.949095  0.490188  -0.571001
    O   O6    0.949095  0.411896  0.490188  -0.570990
    O   O7    0.411896  0.050905  0.490188  -0.570978
    O   O8    0.050905  0.588104  0.490188  -0.570988
    O   O9    0.088104  0.550905  0.009812  -0.570953
    O   O10   0.449095  0.088104  0.009812  -0.570960
    O   O11   0.911896  0.449095  0.009812  -0.570970
    O   O12   0.550905  0.911896  0.009812  -0.570985
    O   O13   0.088104  0.449095  0.990188  -0.570964
    O   O14   0.449095  0.911896  0.990188  -0.570969
    O   O15   0.911896  0.550905  0.990188  -0.570963
    O   O16   0.550905  0.088104  0.990188  -0.570980
    C   C1    0.617107  0.000000  0.500000  0.634208
    C   C2    0.000000  0.617107  0.500000  0.634235
    C   C3    0.382893  0.000000  0.500000  0.634194
    C   C4    0.000000  0.382893  0.500000  0.634213
    C   C5    0.117107  0.500000  0.000000  0.634158
    C   C6    0.500000  0.117107  0.000000  0.634204
    C   C7    0.882893  0.500000  0.000000  0.634102
    C   C8    0.500000  0.882893  0.000000  0.634162
    O   O17   0.482594  0.050928  0.549488  -0.600199
    O   O18   0.949072  0.482594  0.549488  -0.600208
    O   O19   0.517406  0.949072  0.549488  -0.600207
    O   O20   0.050928  0.517406  0.549488  -0.600204
    O   O21   0.482594  0.949072  0.450512  -0.600219
    O   O22   0.949072  0.517406  0.450512  -0.600218
    O   O23   0.517406  0.050928  0.450512  -0.600205
    O   O24   0.050928  0.482594  0.450512  -0.600213
    O   O25   0.982594  0.550928  0.049488  -0.600203
    O   O26   0.449072  0.982594  0.049488  -0.600207
    O   O27   0.017406  0.449072  0.049488  -0.600204
    O   O28   0.550928  0.017406  0.049488  -0.600222
    O   O29   0.982594  0.449072  0.950512  -0.600197
    O   O30   0.449072  0.017406  0.950512  -0.600199
    O   O31   0.017406  0.550928  0.950512  -0.600191
    O   O32   0.550928  0.982594  0.950512  -0.600214
    C   C9    0.500000  0.000000  0.565771  0.691270
    C   C10   0.000000  0.500000  0.565771  0.691311
    C   C11   0.500000  0.000000  0.434229  0.691293
    C   C12   0.000000  0.500000  0.434229  0.691327
    C   C13   0.000000  0.500000  0.065771  0.691306
    C   C14   0.500000  0.000000  0.065771  0.691363
    C   C15   0.000000  0.500000  0.934229  0.691344
    C   C16   0.500000  0.000000  0.934229  0.691405
    Cu  Cu1   0.500000  0.060381  0.500000  0.943472
    Cu  Cu2   0.939619  0.500000  0.500000  0.943565
    Cu  Cu3   0.500000  0.939619  0.500000  0.943553
    Cu  Cu4   0.060381  0.500000  0.500000  0.943464
    Cu  Cu5   0.000000  0.560381  0.000000  0.943515
    Cu  Cu6   0.439619  0.000000  0.000000  0.943591
    Cu  Cu7   0.000000  0.439619  0.000000  0.943536
    Cu  Cu8   0.560381  0.000000  0.000000  0.943445
    C   C17   0.554469  0.991348  0.878161  -0.088241
    C   C18   0.008652  0.554469  0.878161  -0.088250
    C   C19   0.445531  0.008652  0.878161  -0.088214
    C   C20   0.991348  0.445531  0.878161  -0.088242
    C   C21   0.554469  0.008652  0.121839  -0.088236
    C   C22   0.008652  0.445531  0.121839  -0.088235
    C   C23   0.445531  0.991348  0.121839  -0.088228
    C   C24   0.991348  0.554469  0.121839  -0.088257
    C   C25   0.054469  0.491348  0.378161  -0.088254
    C   C26   0.508652  0.054469  0.378161  -0.088259
    C   C27   0.945531  0.508652  0.378161  -0.088238
    C   C28   0.491348  0.945531  0.378161  -0.088248
    C   C29   0.054469  0.508652  0.621839  -0.088234
    C   C30   0.508652  0.945531  0.621839  -0.088236
    C   C31   0.945531  0.491348  0.621839  -0.088225
    C   C32   0.491348  0.054469  0.621839  -0.088254
    H   H1    0.597827  0.985138  0.891651  0.119239
    H   H2    0.014862  0.597827  0.891651  0.119242
    H   H3    0.402173  0.014862  0.891651  0.119234
    H   H4    0.985138  0.402173  0.891651  0.119242
    H   H5    0.597827  0.014862  0.108349  0.119236
    H   H6    0.014862  0.402173  0.108349  0.119240
    H   H7    0.402173  0.985138  0.108349  0.119237
    H   H8    0.985138  0.597827  0.108349  0.119244
    H   H9    0.097827  0.485138  0.391651  0.119243
    H   H10   0.514862  0.097827  0.391651  0.119244
    H   H11   0.902173  0.514862  0.391651  0.119242
    H   H12   0.485138  0.902173  0.391651  0.119245
    H   H13   0.097827  0.514862  0.608349  0.119234
    H   H14   0.514862  0.902173  0.608349  0.119237
    H   H15   0.902173  0.485138  0.608349  0.119234
    H   H16   0.485138  0.097827  0.608349  0.119239
    C   C33   0.554518  0.991674  0.842429  -0.156300
    C   C34   0.008326  0.554518  0.842429  -0.156296
    C   C35   0.445483  0.008326  0.842429  -0.156316
    C   C36   0.991674  0.445483  0.842429  -0.156304
    C   C37   0.554518  0.008326  0.157571  -0.156312
    C   C38   0.008326  0.445483  0.157571  -0.156319
    C   C39   0.445483  0.991674  0.157571  -0.156319
    C   C40   0.991674  0.554518  0.157571  -0.156302
    C   C41   0.054518  0.491674  0.342429  -0.156304
    C   C42   0.508326  0.054518  0.342429  -0.156303
    C   C43   0.945483  0.508326  0.342429  -0.156320
    C   C44   0.491674  0.945483  0.342429  -0.156316
    C   C45   0.054518  0.508326  0.657571  -0.156317
    C   C46   0.508326  0.945483  0.657571  -0.156326
    C   C47   0.945483  0.491674  0.657571  -0.156328
    C   C48   0.491674  0.054518  0.657571  -0.156311
    H   H17   0.598109  0.986651  0.829035  0.112682
    H   H18   0.013349  0.598109  0.829035  0.112680
    H   H19   0.401891  0.013349  0.829035  0.112681
    H   H20   0.986651  0.401891  0.829035  0.112680
    H   H21   0.598109  0.013349  0.170965  0.112685
    H   H22   0.013349  0.401891  0.170965  0.112684
    H   H23   0.401891  0.986651  0.170965  0.112685
    H   H24   0.986651  0.598109  0.170965  0.112685
    H   H25   0.098109  0.486651  0.329035  0.112687
    H   H26   0.513349  0.098109  0.329035  0.112687
    H   H27   0.901891  0.513349  0.329035  0.112687
    H   H28   0.486651  0.901891  0.329035  0.112684
    H   H29   0.098109  0.513349  0.670965  0.112692
    H   H30   0.513349  0.901891  0.670965  0.112690
    H   H31   0.901891  0.486651  0.670965  0.112690
    H   H32   0.486651  0.098109  0.670965  0.112690
    C   C49   0.500000  0.000000  0.824232  0.101911
    C   C50   0.000000  0.500000  0.824232  0.101910
    C   C51   0.500000  0.000000  0.175768  0.101914
    C   C52   0.000000  0.500000  0.175768  0.101913
    C   C53   0.000000  0.500000  0.324232  0.101913
    C   C54   0.500000  0.000000  0.324232  0.101913
    C   C55   0.000000  0.500000  0.675768  0.101914
    C   C56   0.500000  0.000000  0.675768  0.101916
    C   C57   0.500000  0.000000  0.896240  -0.052940
    C   C58   0.000000  0.500000  0.896240  -0.052902
    C   C59   0.500000  0.000000  0.103760  -0.052902
    C   C60   0.000000  0.500000  0.103760  -0.052869
    C   C61   0.000000  0.500000  0.396240  -0.052877
    C   C62   0.500000  0.000000  0.396240  -0.052858
    C   C63   0.000000  0.500000  0.603760  -0.052882
    C   C64   0.500000  0.000000  0.603760  -0.052850
    C   C65   0.461106  0.039036  0.767864  -0.139043
    C   C66   0.960964  0.461106  0.767864  -0.139062
    C   C67   0.538894  0.960964  0.767864  -0.139056
    C   C68   0.039036  0.538894  0.767864  -0.139047
    C   C69   0.461106  0.960964  0.232136  -0.139041
    C   C70   0.960964  0.538894  0.232136  -0.139043
    C   C71   0.538894  0.039036  0.232136  -0.139025
    C   C72   0.039036  0.461106  0.232136  -0.139031
    C   C73   0.961106  0.539036  0.267864  -0.139039
    C   C74   0.460964  0.961106  0.267864  -0.139052
    C   C75   0.038894  0.460964  0.267864  -0.139050
    C   C76   0.539036  0.038894  0.267864  -0.139047
    C   C77   0.961106  0.460964  0.732136  -0.139031
    C   C78   0.460964  0.038894  0.732136  -0.139038
    C   C79   0.038894  0.539036  0.732136  -0.139026
    C   C80   0.539036  0.961106  0.732136  -0.139027
    H   H33   0.430989  0.070959  0.781248  0.112666
    H   H34   0.929041  0.430989  0.781248  0.112670
    H   H35   0.569011  0.929041  0.781248  0.112667
    H   H36   0.070959  0.569011  0.781248  0.112665
    H   H37   0.430989  0.929041  0.218752  0.112664
    H   H38   0.929041  0.569011  0.218752  0.112663
    H   H39   0.569011  0.070959  0.218752  0.112659
    H   H40   0.070959  0.430989  0.218752  0.112661
    H   H41   0.930989  0.570959  0.281248  0.112662
    H   H42   0.429041  0.930989  0.281248  0.112668
    H   H43   0.069011  0.429041  0.281248  0.112665
    H   H44   0.570959  0.069011  0.281248  0.112661
    H   H45   0.930989  0.429041  0.718752  0.112662
    H   H46   0.429041  0.069011  0.718752  0.112660
    H   H47   0.069011  0.570959  0.718752  0.112655
    H   H48   0.570959  0.930989  0.718752  0.112657
    C   C81   0.500000  0.000000  0.713931  0.068665
    C   C82   0.000000  0.500000  0.713931  0.068664
    C   C83   0.500000  0.000000  0.286069  0.068675
    C   C84   0.000000  0.500000  0.286069  0.068672
    C   C85   0.000000  0.500000  0.213931  0.068668
    C   C86   0.500000  0.000000  0.213931  0.068664
    C   C87   0.000000  0.500000  0.786069  0.068676
    C   C88   0.500000  0.000000  0.786069  0.068672
    C   C89   0.716838  0.959365  0.479291  -0.197989
    C   C90   0.040635  0.716838  0.479291  -0.197940
    C   C91   0.283162  0.040635  0.479291  -0.197964
    C   C92   0.959365  0.283162  0.479291  -0.197963
    C   C93   0.716838  0.040635  0.520709  -0.198030
    C   C94   0.040635  0.283162  0.520709  -0.198014
    C   C95   0.283162  0.959365  0.520709  -0.197956
    C   C96   0.959365  0.716838  0.520709  -0.197992
    C   C97   0.216838  0.459365  0.979291  -0.197964
    C   C98   0.540635  0.216838  0.979291  -0.198011
    C   C99   0.783162  0.540635  0.979291  -0.198064
    C   C100  0.459365  0.783162  0.979291  -0.197986
    C   C101  0.216838  0.540635  0.020709  -0.198021
    C   C102  0.540635  0.783162  0.020709  -0.198034
    C   C103  0.783162  0.459365  0.020709  -0.198068
    C   C104  0.459365  0.216838  0.020709  -0.198020
    H   H49   0.691934  0.927274  0.462972  0.133517
    H   H50   0.072726  0.691934  0.462972  0.133500
    H   H51   0.308066  0.072726  0.462972  0.133507
    H   H52   0.927274  0.308066  0.462972  0.133502
    H   H53   0.691934  0.072726  0.537028  0.133523
    H   H54   0.072726  0.308066  0.537028  0.133512
    H   H55   0.308066  0.927274  0.537028  0.133503
    H   H56   0.927274  0.691934  0.537028  0.133517
    H   H57   0.191934  0.427274  0.962972  0.133514
    H   H58   0.572726  0.191934  0.962972  0.133520
    H   H59   0.808066  0.572726  0.962972  0.133528
    H   H60   0.427274  0.808066  0.962972  0.133512
    H   H61   0.191934  0.572726  0.037028  0.133522
    H   H62   0.572726  0.808066  0.037028  0.133520
    H   H63   0.808066  0.427274  0.037028  0.133528
    H   H64   0.427274  0.191934  0.037028  0.133517
    C   C105  0.780661  0.958670  0.479083  0.035766
    C   C106  0.041330  0.780661  0.479083  0.035681
    C   C107  0.219339  0.041330  0.479083  0.035729
    C   C108  0.958670  0.219339  0.479083  0.035757
    C   C109  0.780661  0.041330  0.520917  0.035812
    C   C110  0.041330  0.219339  0.520917  0.035822
    C   C111  0.219339  0.958670  0.520917  0.035662
    C   C112  0.958670  0.780661  0.520917  0.035768
    C   C113  0.280661  0.458670  0.979083  0.035732
    C   C114  0.541330  0.280661  0.979083  0.035861
    C   C115  0.719339  0.541330  0.979083  0.035877
    C   C116  0.458670  0.719339  0.979083  0.035744
    C   C117  0.280661  0.541330  0.020917  0.035792
    C   C118  0.541330  0.719339  0.020917  0.035843
    C   C119  0.719339  0.458670  0.020917  0.035871
    C   C120  0.458670  0.280661  0.020917  0.035814
    C   C121  0.813635  0.000000  0.500000  -0.092359
    C   C122  0.000000  0.813635  0.500000  -0.092281
    C   C123  0.186365  0.000000  0.500000  -0.092183
    C   C124  0.000000  0.186365  0.500000  -0.092400
    C   C125  0.313635  0.500000  0.000000  -0.092287
    C   C126  0.500000  0.313635  0.000000  -0.092455
    C   C127  0.686365  0.500000  0.000000  -0.092531
    C   C128  0.500000  0.686365  0.000000  -0.092351
    C   C129  0.684798  0.000000  0.500000  0.073683
    C   C130  0.000000  0.684798  0.500000  0.073642
    C   C131  0.315202  0.000000  0.500000  0.073649
    C   C132  0.000000  0.315202  0.500000  0.073665
    C   C133  0.184798  0.500000  0.000000  0.073676
    C   C134  0.500000  0.184798  0.000000  0.073679
    C   C135  0.815202  0.500000  0.000000  0.073781
    C   C136  0.500000  0.815202  0.000000  0.073707
    O   O33   0.013983  0.089024  0.471048  -0.630485
    O   O34   0.910976  0.013983  0.471048  -0.630465
    O   O35   0.986017  0.910976  0.471048  -0.630484
    O   O36   0.089024  0.986017  0.471048  -0.630389
    O   O37   0.013983  0.910976  0.528952  -0.630476
    O   O38   0.910976  0.986017  0.528952  -0.630504
    O   O39   0.986017  0.089024  0.528952  -0.630515
    O   O40   0.089024  0.013983  0.528952  -0.630451
    O   O41   0.513983  0.589024  0.971048  -0.630464
    O   O42   0.410976  0.513983  0.971048  -0.630403
    O   O43   0.486017  0.410976  0.971048  -0.630449
    O   O44   0.589024  0.486017  0.971048  -0.630514
    O   O45   0.513983  0.410976  0.028952  -0.630545
    O   O46   0.410976  0.486017  0.028952  -0.630467
    O   O47   0.486017  0.589024  0.028952  -0.630486
    O   O48   0.589024  0.513983  0.028952  -0.630564
    C   C137  0.000000  0.118219  0.500000  0.880396
    C   C138  0.881781  0.000000  0.500000  0.880295
    C   C139  0.000000  0.881781  0.500000  0.880280
    C   C140  0.118219  0.000000  0.500000  0.880109
    C   C141  0.500000  0.618219  0.000000  0.880252
    C   C142  0.381781  0.500000  0.000000  0.880156
    C   C143  0.500000  0.381781  0.000000  0.880371
    C   C144  0.618219  0.500000  0.000000  0.880487
    Cu  Cu9   0.000000  0.000000  0.465923  1.033933
    Cu  Cu10  0.000000  0.000000  0.534077  1.033993
    Cu  Cu11  0.500000  0.500000  0.965923  1.033902
    Cu  Cu12  0.500000  0.500000  0.034077  1.033953
    C   C145  0.809983  0.911774  0.456819  0.358844
    H   H65   0.782799  0.890094  0.436577  0.002102
    O   O49   0.861920  0.892524  0.462423  -0.374242
    C   C146  0.088226  0.809983  0.456819  0.358953
    H   H66   0.109906  0.782799  0.436577  0.002081
    O   O50   0.107476  0.861920  0.462423  -0.374300
    C   C147  0.190017  0.088226  0.456819  0.358842
    H   H67   0.217201  0.109906  0.436577  0.002105
    O   O51   0.138080  0.107476  0.462423  -0.374232
    C   C148  0.911774  0.190017  0.456819  0.358849
    H   H68   0.890094  0.217201  0.436577  0.002105
    O   O52   0.892524  0.138080  0.462423  -0.374246
    C   C149  0.809983  0.088226  0.543181  0.358863
    H   H69   0.782799  0.109906  0.563423  0.002092
    O   O53   0.861920  0.107476  0.537577  -0.374246
    C   C150  0.088226  0.190017  0.543181  0.358852
    H   H70   0.109906  0.217201  0.563423  0.002096
    O   O54   0.107476  0.138080  0.537577  -0.374241
    C   C151  0.190017  0.911774  0.543181  0.358972
    H   H71   0.217201  0.890094  0.563423  0.002078
    O   O55   0.138080  0.892524  0.537577  -0.374297
    C   C152  0.911774  0.809983  0.543181  0.358851
    H   H72   0.890094  0.782799  0.563423  0.002100
    O   O56   0.892524  0.861920  0.537577  -0.374246
    C   C153  0.309983  0.411774  0.956819  0.358848
    H   H73   0.282799  0.390094  0.936577  0.002102
    O   O57   0.361920  0.392524  0.962423  -0.374230
    C   C154  0.588226  0.309983  0.956819  0.358741
    H   H74   0.609906  0.282799  0.936577  0.002118
    O   O58   0.607476  0.361920  0.962423  -0.374181
    C   C155  0.690017  0.588226  0.956819  0.358785
    H   H75   0.717201  0.609906  0.936577  0.002105
    O   O59   0.638080  0.607476  0.962423  -0.374193
    C   C156  0.411774  0.690017  0.956819  0.358878
    H   H76   0.390094  0.717201  0.936577  0.002093
    O   O60   0.392524  0.638080  0.962423  -0.374239
    C   C157  0.309983  0.588226  0.043181  0.358852
    H   H77   0.282799  0.609906  0.063423  0.002096
    O   O61   0.361920  0.607476  0.037577  -0.374232
    C   C158  0.588226  0.690017  0.043181  0.358771
    H   H78   0.609906  0.717201  0.063423  0.002114
    O   O62   0.607476  0.638080  0.037577  -0.374190
    C   C159  0.690017  0.411774  0.043181  0.358792
    H   H79   0.717201  0.390094  0.063423  0.002108
    O   O63   0.638080  0.392524  0.037577  -0.374199
    C   C160  0.411774  0.309983  0.043181  0.358864
    H   H80   0.390094  0.282799  0.063423  0.002093
    O   O64   0.392524  0.361920  0.037577  -0.374242
