# Generated by REPEAT Assigner based on pymatgen
data_DB0-m2_o1_o2_f0_pcu.sym.23_sqe
_audit_creation_date              2022-05-24
_audit_creation_method            REPEAT_Assigner
_cell_length_a                    11.005491
_cell_length_b                    9.407621
_cell_length_c                    15.156755
_cell_angle_alpha                 90.000000
_cell_angle_beta                  90.006027
_cell_angle_gamma                 90.000000
_cell_volume                      1569.262050
_symmetry_space_group_name_H-M    P1
_symmetry_Int_Tables_number       1
loop_
    _symmetry_equiv_pos_site_id
    _symmetry_equiv_pos_as_xyz
    1  x,y,z
loop_
    _atom_site_type_symbol
    _atom_site_label
    _atom_site_fract_x
    _atom_site_fract_y
    _atom_site_fract_z
    _atom_type_partial_charge
    O   O1   0.326254  0.619292  0.492528  -0.596041
    O   O2   0.678992  0.374759  0.500317  -0.684225
    O   O3   0.679456  0.617488  0.491980  -0.620902
    O   O4   0.325851  0.376674  0.496801  -0.649341
    N   N1   0.503189  0.851467  0.496338  -0.066505
    N   N2   0.502151  0.142458  0.495367  0.012489
    C   C1   0.267336  0.498064  0.493904  0.776789
    C   C2   0.737772  0.495964  0.496290  0.877701
    O   O5   0.498258  0.619168  0.367306  -0.465349
    O   O6   0.504269  0.375157  0.623818  -0.567488
    O   O7   0.499173  0.618277  0.623687  -0.533193
    O   O8   0.509170  0.375624  0.367245  -0.524084
    C   C3   0.504365  0.497707  0.325308  0.595643
    C   C4   0.501449  0.497013  0.665861  0.756415
    Cu  Cu1  0.503040  0.638727  0.494072  0.700894
    Cu  Cu2  0.502627  0.355319  0.496036  0.755440
    H   H1   0.373738  0.125299  0.393515  0.124485
    H   H2   0.631948  0.868089  0.598025  0.182122
    H   H3   0.640183  0.127865  0.591032  0.213074
    H   H4   0.376919  0.865164  0.392310  0.073288
    C   C5   0.431520  0.069538  0.438917  -0.006274
    C   C6   0.575692  0.924105  0.551175  -0.030775
    C   C7   0.577732  0.070817  0.549199  -0.123152
    C   C8   0.433102  0.922887  0.438277  0.073917
    C   C9   0.064991  0.373392  0.478289  0.021693
    C   C10  0.939281  0.618852  0.515176  0.260956
    C   C11  0.939603  0.373701  0.476667  0.240182
    C   C12  0.064394  0.621561  0.509484  0.080177
    C   C13  0.560302  0.611439  0.090653  -0.383249
    C   C14  0.553089  0.390485  0.903006  -0.423315
    C   C15  0.455203  0.615060  0.901466  -0.254561
    C   C16  0.449180  0.394923  0.089057  -0.368819
    H   H5   0.605993  0.695998  0.055549  0.133657
    H   H6   0.593692  0.303777  0.939353  0.143005
    H   H7   0.414273  0.702801  0.936611  0.122622
    H   H8   0.402614  0.312152  0.052982  0.162984
    C   C17  0.562974  0.608664  0.181743  0.206214
    C   C18  0.554567  0.388168  0.812114  0.345833
    C   C19  0.450598  0.612137  0.810442  0.185854
    C   C20  0.446748  0.393560  0.179872  0.253100
    C   C21  0.505430  0.499395  0.227766  -0.097059
    C   C22  0.501939  0.498691  0.763820  -0.208577
    C   C23  0.504698  0.503986  0.044220  0.278844
    C   C24  0.505139  0.504020  0.947848  0.197700
    C   C25  0.873410  0.495965  0.496415  -0.373985
    C   C26  0.131195  0.497837  0.493594  -0.207414
    S   S1   0.648948  0.743779  0.236700  -0.184718
    C   C27  0.535143  0.878347  0.213694  -0.143852
    H   H9   0.545032  0.966280  0.261829  0.150031
    H   H10  0.443037  0.831738  0.220452  0.043015
    H   H11  0.547889  0.920280  0.145945  0.051817
    S   S2   0.632043  0.242441  0.761727  -0.248210
    C   C28  0.506733  0.122239  0.783860  -0.117211
    H   H12  0.510036  0.032756  0.736411  0.132094
    H   H13  0.419298  0.179343  0.775514  0.037443
    H   H14  0.514071  0.080275  0.852019  0.045150
    S   S3   0.369851  0.754026  0.757566  -0.231440
    C   C29  0.224739  0.665232  0.771393  -0.044019
    H   H15  0.156050  0.716662  0.728403  0.098263
    H   H16  0.195174  0.673181  0.841161  0.006969
    H   H17  0.233632  0.552114  0.751910  0.048731
    S   S4   0.357537  0.258882  0.231721  -0.275561
    C   C30  0.217325  0.354726  0.211074  -0.030280
    H   H18  0.149022  0.324690  0.261503  0.099324
    H   H19  0.182585  0.327997  0.144418  0.014625
    H   H20  0.234410  0.470623  0.215844  0.029071
    S   S5   0.133328  0.205237  0.454214  -0.056711
    C   C31  0.133595  0.154746  0.569804  0.057225
    H   H21  0.217264  0.093575  0.584711  0.055534
    H   H22  0.052126  0.089713  0.584827  -0.061073
    H   H23  0.132750  0.251925  0.611136  0.028126
    S   S6   0.870186  0.780959  0.551545  -0.105077
    C   C32  0.863132  0.719569  0.664955  -0.036040
    H   H24  0.882939  0.809126  0.710367  0.048099
    H   H25  0.932138  0.635393  0.675205  -0.006894
    H   H26  0.771510  0.675981  0.678842  0.016322
    S   S7   0.870334  0.208554  0.445862  -0.084003
    C   C33  0.874812  0.251922  0.329216  0.183999
    H   H27  0.782238  0.241798  0.301056  -0.003726
    H   H28  0.937810  0.178230  0.295070  -0.048856
    H   H29  0.906775  0.362778  0.320025  -0.058194
    S   S8   0.131294  0.793536  0.523571  -0.040013
    C   C34  0.100469  0.839864  0.409236  -0.172055
    H   H30  0.168652  0.917601  0.385838  0.096891
    H   H31  0.008687  0.887317  0.403118  0.049642
    H   H32  0.106664  0.743347  0.367426  0.064791
