# Generated by REPEAT Assigner based on pymatgen
data_DB0-m2_o1_o3_f0_nbo.sym.21_sqe
_audit_creation_date              2022-05-24
_audit_creation_method            REPEAT_Assigner
_cell_length_a                    21.497437
_cell_length_b                    21.497437
_cell_length_c                    38.501423
_cell_angle_alpha                 90.000000
_cell_angle_beta                  90.000000
_cell_angle_gamma                 90.000000
_cell_volume                      17793.040209
_symmetry_space_group_name_H-M    P1
_symmetry_Int_Tables_number       1
loop_
    _symmetry_equiv_pos_site_id
    _symmetry_equiv_pos_as_xyz
    1  x,y,z
loop_
    _atom_site_type_symbol
    _atom_site_label
    _atom_site_fract_x
    _atom_site_fract_y
    _atom_site_fract_z
    _atom_type_partial_charge
    O   O1    0.588891  0.051650  0.491042  -0.615187
    O   O2    0.948350  0.588891  0.491042  -0.615208
    O   O3    0.411109  0.948350  0.491042  -0.615192
    O   O4    0.051650  0.411109  0.491042  -0.615183
    O   O5    0.588891  0.948350  0.508958  -0.615203
    O   O6    0.948350  0.411109  0.508958  -0.615197
    O   O7    0.411109  0.051650  0.508958  -0.615178
    O   O8    0.051650  0.588891  0.508958  -0.615191
    O   O9    0.088891  0.551650  0.991042  -0.615145
    O   O10   0.448350  0.088891  0.991042  -0.615159
    O   O11   0.911109  0.448350  0.991042  -0.615169
    O   O12   0.551650  0.911109  0.991042  -0.615140
    O   O13   0.088891  0.448350  0.008958  -0.615190
    O   O14   0.448350  0.911109  0.008958  -0.615163
    O   O15   0.911109  0.551650  0.008958  -0.615170
    O   O16   0.551650  0.088891  0.008958  -0.615170
    C   C1    0.617907  0.000000  0.500000  0.955728
    C   C2    0.000000  0.617907  0.500000  0.955729
    C   C3    0.382093  0.000000  0.500000  0.955714
    C   C4    0.000000  0.382093  0.500000  0.955717
    C   C5    0.117907  0.500000  0.000000  0.955668
    C   C6    0.500000  0.117907  0.000000  0.955664
    C   C7    0.882093  0.500000  0.000000  0.955643
    C   C8    0.500000  0.882093  0.000000  0.955612
    O   O17   0.516154  0.051573  0.549727  -0.610376
    O   O18   0.948427  0.516154  0.549727  -0.610292
    O   O19   0.483846  0.948427  0.549727  -0.610291
    O   O20   0.051573  0.483846  0.549727  -0.610367
    O   O21   0.516154  0.948427  0.450273  -0.610321
    O   O22   0.948427  0.483846  0.450273  -0.610314
    O   O23   0.483846  0.051573  0.450273  -0.610395
    O   O24   0.051573  0.516154  0.450273  -0.610398
    O   O25   0.016154  0.551573  0.049727  -0.610379
    O   O26   0.448427  0.016154  0.049727  -0.610408
    O   O27   0.983846  0.448427  0.049727  -0.610297
    O   O28   0.551573  0.983846  0.049727  -0.610414
    O   O29   0.016154  0.448427  0.950273  -0.610285
    O   O30   0.448427  0.983846  0.950273  -0.610299
    O   O31   0.983846  0.551573  0.950273  -0.610366
    O   O32   0.551573  0.016154  0.950273  -0.610377
    C   C9    0.500000  0.000000  0.566021  0.592662
    C   C10   0.000000  0.500000  0.566021  0.592669
    C   C11   0.500000  0.000000  0.433979  0.592701
    C   C12   0.000000  0.500000  0.433979  0.592713
    C   C13   0.000000  0.500000  0.066021  0.592693
    C   C14   0.500000  0.000000  0.066021  0.592795
    C   C15   0.000000  0.500000  0.933979  0.592737
    C   C16   0.500000  0.000000  0.933979  0.592740
    Cu  Cu1   0.500000  0.060989  0.500000  0.975798
    Cu  Cu2   0.939012  0.500000  0.500000  0.975759
    Cu  Cu3   0.500000  0.939012  0.500000  0.975762
    Cu  Cu4   0.060989  0.500000  0.500000  0.975794
    Cu  Cu5   0.000000  0.560988  0.000000  0.975764
    Cu  Cu6   0.439012  0.000000  0.000000  0.975759
    Cu  Cu7   0.000000  0.439011  0.000000  0.975724
    Cu  Cu8   0.560989  0.000000  0.000000  0.975777
    C   C17   0.555473  0.002300  0.877864  -0.112129
    C   C18   0.997700  0.555473  0.877864  -0.112115
    C   C19   0.444527  0.997700  0.877864  -0.112135
    C   C20   0.002300  0.444527  0.877864  -0.112127
    C   C21   0.555473  0.997700  0.122136  -0.112125
    C   C22   0.997700  0.444527  0.122136  -0.112110
    C   C23   0.444527  0.002300  0.122136  -0.112122
    C   C24   0.002300  0.555473  0.122136  -0.112105
    C   C25   0.055473  0.502300  0.377864  -0.112109
    C   C26   0.497700  0.055473  0.377864  -0.112119
    C   C27   0.944527  0.497700  0.377864  -0.112125
    C   C28   0.502300  0.944527  0.377864  -0.112132
    C   C29   0.055473  0.497700  0.622136  -0.112096
    C   C30   0.497700  0.944527  0.622136  -0.112117
    C   C31   0.944527  0.502300  0.622136  -0.112112
    C   C32   0.502300  0.055473  0.622136  -0.112099
    H   H1    0.599442  0.003902  0.891428  0.129155
    H   H2    0.996098  0.599442  0.891428  0.129153
    H   H3    0.400558  0.996098  0.891428  0.129140
    H   H4    0.003902  0.400558  0.891428  0.129133
    H   H5    0.599442  0.996098  0.108572  0.129160
    H   H6    0.996098  0.400558  0.108572  0.129130
    H   H7    0.400558  0.003902  0.108572  0.129157
    H   H8    0.003902  0.599442  0.108572  0.129148
    H   H9    0.099442  0.503902  0.391428  0.129151
    H   H10   0.496098  0.099442  0.391428  0.129157
    H   H11   0.900558  0.496098  0.391428  0.129135
    H   H12   0.503902  0.900558  0.391428  0.129141
    H   H13   0.099442  0.496098  0.608572  0.129139
    H   H14   0.496098  0.900558  0.608572  0.129126
    H   H15   0.900558  0.503902  0.608572  0.129123
    H   H16   0.503902  0.099442  0.608572  0.129143
    C   C33   0.555459  0.001524  0.842068  -0.164827
    C   C34   0.998476  0.555459  0.842068  -0.164830
    C   C35   0.444542  0.998476  0.842068  -0.164812
    C   C36   0.001524  0.444541  0.842068  -0.164814
    C   C37   0.555459  0.998476  0.157932  -0.164841
    C   C38   0.998476  0.444541  0.157932  -0.164835
    C   C39   0.444541  0.001524  0.157932  -0.164845
    C   C40   0.001524  0.555459  0.157932  -0.164845
    C   C41   0.055459  0.501524  0.342068  -0.164846
    C   C42   0.498476  0.055459  0.342068  -0.164842
    C   C43   0.944541  0.498476  0.342068  -0.164831
    C   C44   0.501524  0.944541  0.342068  -0.164828
    C   C45   0.055459  0.498476  0.657932  -0.164849
    C   C46   0.498476  0.944541  0.657932  -0.164836
    C   C47   0.944541  0.501524  0.657932  -0.164833
    C   C48   0.501524  0.055459  0.657932  -0.164852
    H   H17   0.599248  0.003555  0.828326  0.109693
    H   H18   0.996445  0.599248  0.828326  0.109695
    H   H19   0.400752  0.996445  0.828326  0.109687
    H   H20   0.003555  0.400752  0.828326  0.109698
    H   H21   0.599248  0.996445  0.171674  0.109699
    H   H22   0.996445  0.400752  0.171674  0.109705
    H   H23   0.400752  0.003555  0.171674  0.109703
    H   H24   0.003555  0.599248  0.171674  0.109704
    H   H25   0.099248  0.503555  0.328326  0.109704
    H   H26   0.496445  0.099248  0.328326  0.109703
    H   H27   0.900752  0.496445  0.328326  0.109704
    H   H28   0.503555  0.900752  0.328326  0.109703
    H   H29   0.099248  0.496445  0.671674  0.109706
    H   H30   0.496445  0.900752  0.671674  0.109705
    H   H31   0.900752  0.503555  0.671674  0.109707
    H   H32   0.503555  0.099248  0.671674  0.109705
    C   C49   0.500000  0.000000  0.824004  0.098802
    C   C50   0.000000  0.500000  0.824004  0.098794
    C   C51   0.500000  0.000000  0.175996  0.098817
    C   C52   0.000000  0.500000  0.175996  0.098794
    C   C53   0.000000  0.500000  0.324004  0.098801
    C   C54   0.500000  0.000000  0.324004  0.098798
    C   C55   0.000000  0.500000  0.675996  0.098798
    C   C56   0.500000  0.000000  0.675996  0.098799
    C   C57   0.500000  0.000000  0.895946  0.057721
    C   C58   0.000000  0.500000  0.895946  0.057708
    C   C59   0.500000  0.000000  0.104054  0.057716
    C   C60   0.000000  0.500000  0.104054  0.057732
    C   C61   0.000000  0.500000  0.395946  0.057736
    C   C62   0.500000  0.000000  0.395946  0.057752
    C   C63   0.000000  0.500000  0.604054  0.057736
    C   C64   0.500000  0.000000  0.604054  0.057747
    C   C65   0.460477  0.038951  0.767896  -0.136345
    C   C66   0.961049  0.460477  0.767896  -0.136350
    C   C67   0.539523  0.961049  0.767896  -0.136348
    C   C68   0.038951  0.539523  0.767896  -0.136338
    C   C69   0.460477  0.961049  0.232104  -0.136316
    C   C70   0.961049  0.539523  0.232104  -0.136317
    C   C71   0.539523  0.038951  0.232104  -0.136304
    C   C72   0.038951  0.460477  0.232104  -0.136314
    C   C73   0.960477  0.538951  0.267896  -0.136334
    C   C74   0.461049  0.960477  0.267896  -0.136339
    C   C75   0.039523  0.461049  0.267896  -0.136336
    C   C76   0.538951  0.039523  0.267896  -0.136336
    C   C77   0.960477  0.461049  0.732104  -0.136302
    C   C78   0.461049  0.039523  0.732104  -0.136305
    C   C79   0.039523  0.538951  0.732104  -0.136295
    C   C80   0.538951  0.960477  0.732104  -0.136303
    H   H33   0.429755  0.070232  0.781629  0.107882
    H   H34   0.929768  0.429755  0.781629  0.107882
    H   H35   0.570245  0.929768  0.781629  0.107881
    H   H36   0.070232  0.570245  0.781629  0.107878
    H   H37   0.429755  0.929768  0.218371  0.107872
    H   H38   0.929768  0.570245  0.218371  0.107871
    H   H39   0.570245  0.070232  0.218371  0.107869
    H   H40   0.070232  0.429755  0.218371  0.107873
    H   H41   0.929755  0.570232  0.281629  0.107876
    H   H42   0.429768  0.929755  0.281629  0.107878
    H   H43   0.070245  0.429768  0.281629  0.107875
    H   H44   0.570232  0.070245  0.281629  0.107875
    H   H45   0.929755  0.429768  0.718371  0.107868
    H   H46   0.429768  0.070245  0.718371  0.107870
    H   H47   0.070245  0.570232  0.718371  0.107864
    H   H48   0.570232  0.929755  0.718371  0.107870
    C   C81   0.500000  0.000000  0.714038  0.068334
    C   C82   0.000000  0.500000  0.714038  0.068332
    C   C83   0.500000  0.000000  0.285962  0.068354
    C   C84   0.000000  0.500000  0.285962  0.068355
    C   C85   0.000000  0.500000  0.214038  0.068347
    C   C86   0.500000  0.000000  0.214038  0.068332
    C   C87   0.000000  0.500000  0.785962  0.068359
    C   C88   0.500000  0.000000  0.785962  0.068356
    C   C89   0.717814  0.960614  0.478142  0.607267
    C   C90   0.039387  0.717814  0.478142  0.607227
    C   C91   0.282186  0.039387  0.478142  0.607229
    C   C92   0.960614  0.282186  0.478142  0.607274
    C   C93   0.717814  0.039387  0.521858  0.607247
    C   C94   0.039387  0.282186  0.521858  0.607251
    C   C95   0.282186  0.960614  0.521858  0.607283
    C   C96   0.960614  0.717814  0.521858  0.607276
    C   C97   0.217814  0.460613  0.978142  0.607255
    C   C98   0.539387  0.217814  0.978142  0.607208
    C   C99   0.782186  0.539386  0.978142  0.607231
    C   C100  0.460614  0.782186  0.978142  0.607266
    C   C101  0.217814  0.539386  0.021858  0.607232
    C   C102  0.539387  0.782186  0.021858  0.607225
    C   C103  0.782186  0.460613  0.021858  0.607268
    C   C104  0.460614  0.217814  0.021858  0.607208
    C   C105  0.781949  0.961336  0.477716  -0.428425
    C   C106  0.038665  0.781949  0.477716  -0.428425
    C   C107  0.218051  0.038665  0.477716  -0.428404
    C   C108  0.961336  0.218052  0.477716  -0.428417
    C   C109  0.781949  0.038665  0.522284  -0.428424
    C   C110  0.038665  0.218052  0.522284  -0.428421
    C   C111  0.218051  0.961336  0.522284  -0.428424
    C   C112  0.961336  0.781949  0.522284  -0.428448
    C   C113  0.281949  0.461335  0.977716  -0.428403
    C   C114  0.538665  0.281949  0.977716  -0.428376
    C   C115  0.718052  0.538664  0.977716  -0.428383
    C   C116  0.461336  0.718051  0.977716  -0.428388
    C   C117  0.281949  0.538664  0.022284  -0.428410
    C   C118  0.538665  0.718051  0.022284  -0.428403
    C   C119  0.718052  0.461335  0.022284  -0.428418
    C   C120  0.461336  0.281949  0.022284  -0.428391
    H   H49   0.806581  0.930532  0.460309  0.148242
    H   H50   0.069468  0.806581  0.460309  0.148251
    H   H51   0.193419  0.069468  0.460309  0.148245
    H   H52   0.930532  0.193420  0.460309  0.148240
    H   H53   0.806581  0.069468  0.539691  0.148248
    H   H54   0.069468  0.193420  0.539691  0.148248
    H   H55   0.193419  0.930532  0.539691  0.148243
    H   H56   0.930532  0.806581  0.539691  0.148250
    H   H57   0.306581  0.430532  0.960309  0.148240
    H   H58   0.569468  0.306581  0.960309  0.148233
    H   H59   0.693420  0.569468  0.960309  0.148233
    H   H60   0.430532  0.693419  0.960309  0.148237
    H   H61   0.306581  0.569468  0.039691  0.148247
    H   H62   0.569468  0.693419  0.039691  0.148253
    H   H63   0.693420  0.430532  0.039691  0.148252
    H   H64   0.430532  0.306581  0.039691  0.148242
    C   C121  0.814220  0.000000  0.500000  0.057496
    C   C122  0.000000  0.814220  0.500000  0.057508
    C   C123  0.185780  0.000000  0.500000  0.057462
    C   C124  0.000000  0.185780  0.500000  0.057458
    C   C125  0.314220  0.500000  0.000000  0.057467
    C   C126  0.500000  0.314220  0.000000  0.057458
    C   C127  0.685780  0.500000  0.000000  0.057444
    C   C128  0.500000  0.685780  0.000000  0.057448
    C   C129  0.685728  0.000000  0.500000  -0.539594
    C   C130  0.000000  0.685728  0.500000  -0.539584
    C   C131  0.314272  0.000000  0.500000  -0.539601
    C   C132  0.000000  0.314272  0.500000  -0.539600
    C   C133  0.185728  0.500000  0.000000  -0.539557
    C   C134  0.500000  0.185728  0.000000  -0.539547
    C   C135  0.814272  0.500000  0.000000  -0.539551
    C   C136  0.500000  0.814272  0.000000  -0.539546
    O   O33   0.981270  0.088591  0.471623  -0.603623
    O   O34   0.911409  0.981270  0.471623  -0.603623
    O   O35   0.018730  0.911409  0.471623  -0.603631
    O   O36   0.088591  0.018730  0.471623  -0.603621
    O   O37   0.981270  0.911409  0.528377  -0.603639
    O   O38   0.911409  0.018730  0.528377  -0.603636
    O   O39   0.018730  0.088591  0.528377  -0.603638
    O   O40   0.088591  0.981270  0.528377  -0.603628
    O   O41   0.481270  0.588591  0.971623  -0.603576
    O   O42   0.411409  0.481270  0.971623  -0.603577
    O   O43   0.518730  0.411409  0.971623  -0.603570
    O   O44   0.588591  0.518730  0.971623  -0.603582
    O   O45   0.481270  0.411409  0.028377  -0.603612
    O   O46   0.411409  0.518730  0.028377  -0.603617
    O   O47   0.518730  0.588591  0.028377  -0.603621
    O   O48   0.588591  0.481270  0.028377  -0.603624
    C   C137  0.000000  0.117754  0.500000  0.771990
    C   C138  0.882246  0.000000  0.500000  0.771960
    C   C139  0.000000  0.882246  0.500000  0.771955
    C   C140  0.117754  0.000000  0.500000  0.771991
    C   C141  0.500000  0.617754  0.000000  0.771940
    C   C142  0.382246  0.500000  0.000000  0.771925
    C   C143  0.500000  0.382246  0.000000  0.771921
    C   C144  0.617754  0.500000  0.000000  0.771941
    Cu  Cu9   0.000000  0.000000  0.466268  0.910748
    Cu  Cu10  0.000000  0.000000  0.533732  0.910772
    Cu  Cu11  0.500000  0.500000  0.966268  0.910680
    Cu  Cu12  0.500000  0.500000  0.033732  0.910744
    N   N1    0.684745  0.920476  0.455263  -0.760903
    H   H65   0.698782  0.874972  0.460576  0.294548
    H   H66   0.698277  0.931376  0.429943  0.287831
    N   N2    0.079524  0.684745  0.455263  -0.760820
    H   H67   0.125028  0.698782  0.460576  0.294519
    H   H68   0.068624  0.698277  0.429943  0.287812
    N   N3    0.315256  0.079524  0.455263  -0.760813
    H   H69   0.301218  0.125028  0.460576  0.294515
    H   H70   0.301723  0.068624  0.429943  0.287809
    N   N4    0.920476  0.315256  0.455263  -0.760888
    H   H71   0.874972  0.301218  0.460576  0.294539
    H   H72   0.931376  0.301723  0.429943  0.287822
    N   N5    0.684745  0.079524  0.544737  -0.760846
    H   H73   0.698782  0.125028  0.539424  0.294520
    H   H74   0.698277  0.068624  0.570057  0.287827
    N   N6    0.079524  0.315256  0.544737  -0.760830
    H   H75   0.125028  0.301218  0.539424  0.294514
    H   H76   0.068624  0.301723  0.570057  0.287819
    N   N7    0.315256  0.920476  0.544737  -0.760911
    H   H77   0.301218  0.874972  0.539424  0.294541
    H   H78   0.301723  0.931376  0.570057  0.287837
    N   N8    0.920476  0.684745  0.544737  -0.760918
    H   H79   0.874972  0.698782  0.539424  0.294547
    H   H80   0.931376  0.698277  0.570057  0.287842
    N   N9    0.184745  0.420476  0.955263  -0.760890
    H   H81   0.198782  0.374972  0.960576  0.294537
    H   H82   0.198277  0.431376  0.929943  0.287828
    N   N10   0.579525  0.184744  0.955263  -0.760805
    H   H83   0.625028  0.198782  0.960576  0.294515
    H   H84   0.568624  0.198277  0.929943  0.287804
    N   N11   0.815256  0.579524  0.955263  -0.760811
    H   H85   0.801218  0.625028  0.960576  0.294510
    H   H86   0.801723  0.568624  0.929943  0.287803
    N   N12   0.420476  0.815255  0.955263  -0.760907
    H   H87   0.374972  0.801218  0.960576  0.294541
    H   H88   0.431376  0.801723  0.929943  0.287830
    N   N13   0.184745  0.579524  0.044737  -0.760871
    H   H89   0.198782  0.625028  0.039424  0.294532
    H   H90   0.198277  0.568624  0.070057  0.287829
    N   N14   0.579525  0.815255  0.044737  -0.760882
    H   H91   0.625028  0.801218  0.039424  0.294543
    H   H92   0.568624  0.801723  0.070057  0.287831
    N   N15   0.815256  0.420476  0.044737  -0.760929
    H   H93   0.801218  0.374972  0.039424  0.294547
    H   H94   0.801723  0.431376  0.070057  0.287839
    N   N16   0.420476  0.184744  0.044737  -0.760848
    H   H95   0.374972  0.198782  0.039424  0.294531
    H   H96   0.431376  0.198277  0.070057  0.287821
