# Generated by REPEAT Assigner based on pymatgen
data_DB0-m2_o1_o3_f0_nbo.sym.96
_audit_creation_date              2022-05-24
_audit_creation_method            REPEAT_Assigner
_cell_length_a                    21.587629
_cell_length_b                    21.587629
_cell_length_c                    38.482220
_cell_angle_alpha                 90.000000
_cell_angle_beta                  90.000000
_cell_angle_gamma                 90.000000
_cell_volume                      17933.704793
_symmetry_space_group_name_H-M    P1
_symmetry_Int_Tables_number       1
loop_
    _symmetry_equiv_pos_site_id
    _symmetry_equiv_pos_as_xyz
    1  x,y,z
loop_
    _atom_site_type_symbol
    _atom_site_label
    _atom_site_fract_x
    _atom_site_fract_y
    _atom_site_fract_z
    _atom_type_partial_charge
    O   O1    0.588295  0.051091  0.509621  -0.583472
    O   O2    0.948909  0.588295  0.509621  -0.583459
    O   O3    0.411705  0.948909  0.509621  -0.583468
    O   O4    0.051091  0.411705  0.509621  -0.583478
    O   O5    0.588295  0.948909  0.490379  -0.583463
    O   O6    0.948909  0.411705  0.490379  -0.583480
    O   O7    0.411705  0.051091  0.490379  -0.583490
    O   O8    0.051091  0.588295  0.490379  -0.583471
    O   O9    0.088295  0.551091  0.009621  -0.583469
    O   O10   0.448909  0.088295  0.009621  -0.583499
    O   O11   0.911705  0.448909  0.009621  -0.583489
    O   O12   0.551091  0.911705  0.009621  -0.583458
    O   O13   0.088295  0.448909  0.990379  -0.583505
    O   O14   0.448909  0.911705  0.990379  -0.583504
    O   O15   0.911705  0.551091  0.990379  -0.583473
    O   O16   0.551091  0.088295  0.990379  -0.583470
    C   C1    0.617295  0.000000  0.500000  0.712813
    C   C2    0.000000  0.617295  0.500000  0.712781
    C   C3    0.382705  0.000000  0.500000  0.712820
    C   C4    0.000000  0.382705  0.500000  0.712818
    C   C5    0.117295  0.500000  0.000000  0.712837
    C   C6    0.500000  0.117295  0.000000  0.712823
    C   C7    0.882705  0.500000  0.000000  0.712855
    C   C8    0.500000  0.882705  0.000000  0.712852
    O   O17   0.483017  0.051170  0.549654  -0.625278
    O   O18   0.948830  0.483017  0.549654  -0.625263
    O   O19   0.516983  0.948830  0.549654  -0.625253
    O   O20   0.051170  0.516983  0.549654  -0.625264
    O   O21   0.483017  0.948830  0.450346  -0.625268
    O   O22   0.948830  0.516983  0.450346  -0.625277
    O   O23   0.516983  0.051170  0.450346  -0.625291
    O   O24   0.051170  0.483017  0.450346  -0.625277
    O   O25   0.983017  0.551170  0.049654  -0.625265
    O   O26   0.448830  0.983017  0.049654  -0.625294
    O   O27   0.016983  0.448830  0.049654  -0.625296
    O   O28   0.551170  0.016983  0.049654  -0.625267
    O   O29   0.983017  0.448830  0.950346  -0.625302
    O   O30   0.448830  0.016983  0.950346  -0.625293
    O   O31   0.016983  0.551170  0.950346  -0.625277
    O   O32   0.551170  0.983017  0.950346  -0.625273
    C   C9    0.500000  0.000000  0.565896  0.745763
    C   C10   0.000000  0.500000  0.565896  0.745769
    C   C11   0.500000  0.000000  0.434104  0.745795
    C   C12   0.000000  0.500000  0.434104  0.745796
    C   C13   0.000000  0.500000  0.065896  0.745748
    C   C14   0.500000  0.000000  0.065896  0.745769
    C   C15   0.000000  0.500000  0.934104  0.745784
    C   C16   0.500000  0.000000  0.934104  0.745832
    Cu  Cu1   0.500000  0.060559  0.500000  0.956711
    Cu  Cu2   0.939441  0.500000  0.500000  0.956681
    Cu  Cu3   0.500000  0.939441  0.500000  0.956693
    Cu  Cu4   0.060559  0.500000  0.500000  0.956722
    Cu  Cu5   0.000000  0.560558  0.000000  0.956766
    Cu  Cu6   0.439441  0.000000  0.000000  0.956636
    Cu  Cu7   0.000000  0.439441  0.000000  0.956688
    Cu  Cu8   0.560559  0.000000  0.000000  0.956787
    C   C17   0.554008  0.011810  0.878167  -0.173684
    C   C18   0.988190  0.554008  0.878167  -0.173758
    C   C19   0.445992  0.988190  0.878167  -0.173584
    C   C20   0.011810  0.445992  0.878167  -0.173760
    C   C21   0.554008  0.988190  0.121833  -0.173525
    C   C22   0.988190  0.445992  0.121833  -0.173541
    C   C23   0.445992  0.011810  0.121833  -0.173526
    C   C24   0.011810  0.554008  0.121833  -0.173516
    C   C25   0.054008  0.511810  0.378167  -0.173521
    C   C26   0.488190  0.054008  0.378167  -0.173524
    C   C27   0.945992  0.488190  0.378167  -0.173526
    C   C28   0.511810  0.945992  0.378167  -0.173525
    C   C29   0.054008  0.488190  0.621833  -0.173520
    C   C30   0.488190  0.945992  0.621833  -0.173522
    C   C31   0.945992  0.511810  0.621833  -0.173518
    C   C32   0.511810  0.054008  0.621833  -0.173509
    H   H1    0.596454  0.021860  0.891945  0.124425
    H   H2    0.978140  0.596454  0.891945  0.124442
    H   H3    0.403546  0.978140  0.891945  0.124363
    H   H4    0.021860  0.403546  0.891945  0.124438
    H   H5    0.596454  0.978140  0.108055  0.124354
    H   H6    0.978140  0.403546  0.108055  0.124357
    H   H7    0.403546  0.021860  0.108055  0.124352
    H   H8    0.021860  0.596454  0.108055  0.124351
    H   H9    0.096454  0.521860  0.391945  0.124354
    H   H10   0.478140  0.096454  0.391945  0.124356
    H   H11   0.903546  0.478140  0.391945  0.124356
    H   H12   0.521860  0.903546  0.391945  0.124355
    H   H13   0.096454  0.478140  0.608055  0.124350
    H   H14   0.478140  0.903546  0.608055  0.124351
    H   H15   0.903546  0.521860  0.608055  0.124356
    H   H16   0.521860  0.096454  0.608055  0.124352
    C   C33   0.553683  0.013164  0.842381  -0.022255
    C   C34   0.986836  0.553683  0.842381  -0.022215
    C   C35   0.446317  0.986836  0.842381  -0.022287
    C   C36   0.013164  0.446317  0.842381  -0.022221
    C   C37   0.553683  0.986836  0.157619  -0.022340
    C   C38   0.986836  0.446317  0.157619  -0.022327
    C   C39   0.446317  0.013164  0.157619  -0.022341
    C   C40   0.013164  0.553683  0.157619  -0.022342
    C   C41   0.053683  0.513164  0.342381  -0.022340
    C   C42   0.486836  0.053683  0.342381  -0.022337
    C   C43   0.946317  0.486836  0.342381  -0.022333
    C   C44   0.513164  0.946317  0.342381  -0.022335
    C   C45   0.053683  0.486836  0.657619  -0.022351
    C   C46   0.486836  0.946317  0.657619  -0.022340
    C   C47   0.946317  0.513164  0.657619  -0.022354
    C   C48   0.513164  0.053683  0.657619  -0.022359
    H   H17   0.595801  0.024287  0.828537  0.074478
    H   H18   0.975713  0.595801  0.828537  0.074468
    H   H19   0.404199  0.975713  0.828537  0.074489
    H   H20   0.024287  0.404199  0.828537  0.074471
    H   H21   0.595801  0.975713  0.171463  0.074505
    H   H22   0.975713  0.404199  0.171463  0.074500
    H   H23   0.404199  0.024287  0.171463  0.074503
    H   H24   0.024287  0.595801  0.171463  0.074504
    H   H25   0.095801  0.524287  0.328537  0.074506
    H   H26   0.475713  0.095801  0.328537  0.074504
    H   H27   0.904199  0.475713  0.328537  0.074504
    H   H28   0.524287  0.904199  0.328537  0.074505
    H   H29   0.095801  0.475713  0.671463  0.074509
    H   H30   0.475713  0.904199  0.671463  0.074508
    H   H31   0.904199  0.524287  0.671463  0.074511
    H   H32   0.524287  0.095801  0.671463  0.074510
    C   C49   0.500000  0.000000  0.824274  0.015063
    C   C50   0.000000  0.500000  0.824274  0.015070
    C   C51   0.500000  0.000000  0.175726  0.015054
    C   C52   0.000000  0.500000  0.175726  0.015047
    C   C53   0.000000  0.500000  0.324274  0.015047
    C   C54   0.500000  0.000000  0.324274  0.015050
    C   C55   0.000000  0.500000  0.675726  0.015051
    C   C56   0.500000  0.000000  0.675726  0.015038
    C   C57   0.500000  0.000000  0.896159  -0.023695
    C   C58   0.000000  0.500000  0.896159  -0.023560
    C   C59   0.500000  0.000000  0.103841  -0.023748
    C   C60   0.000000  0.500000  0.103841  -0.023737
    C   C61   0.000000  0.500000  0.396159  -0.023766
    C   C62   0.500000  0.000000  0.396159  -0.023765
    C   C63   0.000000  0.500000  0.603841  -0.023764
    C   C64   0.500000  0.000000  0.603841  -0.023761
    C   C65   0.461499  0.040110  0.767973  -0.175925
    C   C66   0.959890  0.461498  0.767973  -0.175896
    C   C67   0.538501  0.959890  0.767973  -0.175906
    C   C68   0.040110  0.538501  0.767973  -0.175920
    C   C69   0.461499  0.959890  0.232027  -0.175935
    C   C70   0.959890  0.538501  0.232027  -0.175940
    C   C71   0.538502  0.040110  0.232027  -0.175950
    C   C72   0.040110  0.461498  0.232027  -0.175957
    C   C73   0.961498  0.540110  0.267973  -0.175912
    C   C74   0.459890  0.961498  0.267973  -0.175904
    C   C75   0.038501  0.459890  0.267973  -0.175892
    C   C76   0.540110  0.038501  0.267973  -0.175905
    C   C77   0.961499  0.459890  0.732027  -0.175916
    C   C78   0.459890  0.038502  0.732027  -0.175916
    C   C79   0.038502  0.540110  0.732027  -0.175916
    C   C80   0.540110  0.961499  0.732027  -0.175923
    C   C81   0.500000  0.000000  0.713910  0.161886
    C   C82   0.000000  0.500000  0.713910  0.161878
    C   C83   0.500000  0.000000  0.286090  0.161857
    C   C84   0.000000  0.500000  0.286090  0.161857
    C   C85   0.000000  0.500000  0.213910  0.161896
    C   C86   0.500000  0.000000  0.213910  0.161886
    C   C87   0.000000  0.500000  0.786090  0.161815
    C   C88   0.500000  0.000000  0.786090  0.161841
    C   C89   0.716983  0.961898  0.477674  -0.047701
    C   C90   0.038103  0.716983  0.477674  -0.047742
    C   C91   0.283017  0.038103  0.477674  -0.047778
    C   C92   0.961897  0.283017  0.477674  -0.047793
    C   C93   0.716983  0.038103  0.522326  -0.047665
    C   C94   0.038103  0.283017  0.522326  -0.047774
    C   C95   0.283017  0.961898  0.522326  -0.047731
    C   C96   0.961897  0.716983  0.522326  -0.047533
    C   C97   0.216983  0.461897  0.977674  -0.047759
    C   C98   0.538103  0.216983  0.977674  -0.047766
    C   C99   0.783017  0.538102  0.977674  -0.047750
    C   C100  0.461897  0.783017  0.977674  -0.047764
    C   C101  0.216983  0.538102  0.022326  -0.047772
    C   C102  0.538103  0.783017  0.022326  -0.047771
    C   C103  0.783017  0.461897  0.022326  -0.047756
    C   C104  0.461898  0.216983  0.022326  -0.047759
    H   H33   0.691676  0.931428  0.460535  0.094309
    H   H34   0.068572  0.691676  0.460535  0.094325
    H   H35   0.308324  0.068572  0.460535  0.094337
    H   H36   0.931428  0.308324  0.460535  0.094341
    H   H37   0.691676  0.068573  0.539465  0.094274
    H   H38   0.068572  0.308324  0.539465  0.094330
    H   H39   0.308324  0.931428  0.539465  0.094316
    H   H40   0.931428  0.691676  0.539465  0.094245
    H   H41   0.191676  0.431427  0.960535  0.094339
    H   H42   0.568572  0.191676  0.960535  0.094343
    H   H43   0.808324  0.568572  0.960535  0.094337
    H   H44   0.431428  0.808324  0.960535  0.094345
    H   H45   0.191676  0.568572  0.039465  0.094334
    H   H46   0.568572  0.808324  0.039465  0.094336
    H   H47   0.808324  0.431428  0.039465  0.094330
    H   H48   0.431428  0.191676  0.039465  0.094329
    C   C105  0.780937  0.961811  0.477293  -0.113568
    C   C106  0.038189  0.780937  0.477293  -0.113337
    C   C107  0.219063  0.038189  0.477293  -0.113441
    C   C108  0.961811  0.219063  0.477293  -0.113359
    C   C109  0.780937  0.038189  0.522707  -0.113597
    C   C110  0.038189  0.219063  0.522707  -0.113422
    C   C111  0.219063  0.961811  0.522707  -0.113587
    C   C112  0.961811  0.780937  0.522707  -0.113997
    C   C113  0.280937  0.461811  0.977293  -0.113406
    C   C114  0.538189  0.280937  0.977293  -0.113412
    C   C115  0.719063  0.538189  0.977293  -0.113393
    C   C116  0.461811  0.719063  0.977293  -0.113392
    C   C117  0.280937  0.538189  0.022707  -0.113398
    C   C118  0.538189  0.719063  0.022707  -0.113432
    C   C119  0.719063  0.461811  0.022707  -0.113451
    C   C120  0.461811  0.280937  0.022707  -0.113474
    C   C121  0.813558  0.000000  0.500000  0.225723
    C   C122  0.000000  0.813558  0.500000  0.225662
    C   C123  0.186442  0.000000  0.500000  0.225722
    C   C124  0.000000  0.186442  0.500000  0.225521
    C   C125  0.313558  0.500000  0.000000  0.225560
    C   C126  0.500000  0.313558  0.000000  0.225613
    C   C127  0.686442  0.500000  0.000000  0.225588
    C   C128  0.500000  0.686442  0.000000  0.225582
    C   C129  0.685000  0.000000  0.500000  -0.144934
    C   C130  0.000000  0.685000  0.500000  -0.144918
    C   C131  0.315000  0.000000  0.500000  -0.144895
    C   C132  0.000000  0.315000  0.500000  -0.144886
    C   C133  0.185000  0.500000  0.000000  -0.144933
    C   C134  0.500000  0.185000  0.000000  -0.144913
    C   C135  0.815000  0.500000  0.000000  -0.144953
    C   C136  0.500000  0.815000  0.000000  -0.144938
    O   O33   0.013494  0.089198  0.470929  -0.473287
    O   O34   0.910802  0.013494  0.470929  -0.473239
    O   O35   0.986506  0.910803  0.470929  -0.473315
    O   O36   0.089198  0.986506  0.470929  -0.473280
    O   O37   0.013494  0.910803  0.529071  -0.473281
    O   O38   0.910802  0.986506  0.529071  -0.473292
    O   O39   0.986506  0.089198  0.529071  -0.473245
    O   O40   0.089198  0.013494  0.529071  -0.473260
    O   O41   0.513494  0.589197  0.970929  -0.473244
    O   O42   0.410802  0.513494  0.970929  -0.473265
    O   O43   0.486506  0.410802  0.970929  -0.473257
    O   O44   0.589197  0.486506  0.970929  -0.473249
    O   O45   0.513494  0.410802  0.029071  -0.473303
    O   O46   0.410802  0.486506  0.029071  -0.473304
    O   O47   0.486506  0.589197  0.029071  -0.473294
    O   O48   0.589198  0.513494  0.029071  -0.473289
    C   C137  0.000000  0.118382  0.500000  0.421450
    C   C138  0.881618  0.000000  0.500000  0.421313
    C   C139  0.000000  0.881618  0.500000  0.421607
    C   C140  0.118382  0.000000  0.500000  0.421282
    C   C141  0.500000  0.618382  0.000000  0.421370
    C   C142  0.381618  0.500000  0.000000  0.421436
    C   C143  0.500000  0.381618  0.000000  0.421392
    C   C144  0.618382  0.500000  0.000000  0.421387
    Cu  Cu9   0.000000  0.000000  0.465803  0.852949
    Cu  Cu10  0.000000  0.000000  0.534197  0.852935
    Cu  Cu11  0.500000  0.500000  0.965803  0.852920
    Cu  Cu12  0.500000  0.500000  0.034197  0.852968
    C   C145  0.421768  0.084138  0.786585  0.299638
    C   C146  0.443059  0.128409  0.809309  -0.097482
    C   C147  0.391835  0.159081  0.820287  -0.333954
    C   C148  0.342913  0.131616  0.803439  0.022019
    O   O49   0.360805  0.085937  0.782776  -0.168059
    H   H49   0.490528  0.137289  0.816732  0.092217
    H   H50   0.389945  0.197309  0.838399  0.186255
    H   H51   0.295091  0.145444  0.806430  0.103440
    C   C149  0.915862  0.421768  0.786584  0.299625
    C   C150  0.871592  0.443059  0.809309  -0.097474
    C   C151  0.840919  0.391835  0.820287  -0.333947
    C   C152  0.868385  0.342913  0.803439  0.022017
    O   O50   0.914063  0.360805  0.782776  -0.168052
    H   H52   0.862712  0.490528  0.816732  0.092208
    H   H53   0.802691  0.389945  0.838399  0.186254
    H   H54   0.854556  0.295091  0.806430  0.103438
    C   C153  0.578232  0.915862  0.786584  0.299622
    C   C154  0.556941  0.871592  0.809309  -0.097461
    C   C155  0.608165  0.840919  0.820287  -0.333952
    C   C156  0.657087  0.868385  0.803439  0.022013
    O   O51   0.639195  0.914063  0.782776  -0.168056
    H   H55   0.509472  0.862712  0.816732  0.092204
    H   H56   0.610055  0.802691  0.838399  0.186255
    H   H57   0.704909  0.854556  0.806430  0.103442
    C   C157  0.084138  0.578232  0.786585  0.299650
    C   C158  0.128408  0.556941  0.809309  -0.097476
    C   C159  0.159081  0.608165  0.820287  -0.333945
    C   C160  0.131616  0.657087  0.803439  0.022001
    O   O52   0.085937  0.639195  0.782776  -0.168059
    H   H58   0.137289  0.509472  0.816732  0.092209
    H   H59   0.197309  0.610055  0.838399  0.186252
    H   H60   0.145444  0.704909  0.806430  0.103446
    C   C161  0.421768  0.915862  0.213415  0.299642
    C   C162  0.443059  0.871591  0.190691  -0.097461
    C   C163  0.391835  0.840919  0.179713  -0.333953
    C   C164  0.342913  0.868384  0.196561  0.022014
    O   O53   0.360805  0.914063  0.217224  -0.168061
    H   H61   0.490528  0.862711  0.183268  0.092206
    H   H62   0.389945  0.802691  0.161601  0.186250
    H   H63   0.295091  0.854556  0.193570  0.103443
    C   C165  0.915862  0.578232  0.213415  0.299653
    C   C166  0.871591  0.556941  0.190691  -0.097460
    C   C167  0.840919  0.608165  0.179713  -0.333961
    C   C168  0.868384  0.657087  0.196561  0.022022
    O   O54   0.914063  0.639195  0.217223  -0.168067
    H   H64   0.862711  0.509472  0.183268  0.092203
    H   H65   0.802691  0.610055  0.161601  0.186248
    H   H66   0.854555  0.704909  0.193570  0.103443
    C   C169  0.578232  0.084138  0.213415  0.299660
    C   C170  0.556941  0.128408  0.190691  -0.097456
    C   C171  0.608165  0.159081  0.179713  -0.333966
    C   C172  0.657087  0.131615  0.196561  0.022016
    O   O55   0.639195  0.085937  0.217224  -0.168062
    H   H67   0.509472  0.137288  0.183268  0.092204
    H   H68   0.610055  0.197309  0.161601  0.186254
    H   H69   0.704909  0.145444  0.193570  0.103444
    C   C173  0.084138  0.421768  0.213415  0.299664
    C   C174  0.128408  0.443059  0.190691  -0.097467
    C   C175  0.159081  0.391835  0.179713  -0.333963
    C   C176  0.131615  0.342913  0.196561  0.022012
    O   O56   0.085937  0.360805  0.217224  -0.168055
    H   H70   0.137288  0.490528  0.183268  0.092212
    H   H71   0.197309  0.389945  0.161601  0.186257
    H   H72   0.145444  0.295091  0.193570  0.103442
    C   C177  0.921768  0.584138  0.286584  0.299637
    C   C178  0.943059  0.628408  0.309309  -0.097477
    C   C179  0.891835  0.659081  0.320287  -0.333952
    C   C180  0.842912  0.631615  0.303439  0.022014
    O   O57   0.860805  0.585937  0.282776  -0.168064
    H   H73   0.990528  0.637288  0.316732  0.092218
    H   H74   0.889945  0.697309  0.338399  0.186250
    H   H75   0.795091  0.645444  0.306430  0.103446
    C   C181  0.415862  0.921768  0.286584  0.299623
    C   C182  0.371592  0.943059  0.309309  -0.097469
    C   C183  0.340919  0.891835  0.320287  -0.333956
    C   C184  0.368385  0.842912  0.303439  0.022013
    O   O58   0.414063  0.860805  0.282776  -0.168057
    H   H76   0.362712  0.990528  0.316732  0.092214
    H   H77   0.302691  0.889945  0.338399  0.186254
    H   H78   0.354556  0.795091  0.306430  0.103446
    C   C185  0.078231  0.415862  0.286585  0.299604
    C   C186  0.056941  0.371592  0.309309  -0.097435
    C   C187  0.108165  0.340919  0.320287  -0.333979
    C   C188  0.157087  0.368385  0.303439  0.022035
    O   O59   0.139195  0.414063  0.282776  -0.168068
    H   H79   0.009472  0.362712  0.316732  0.092205
    H   H80   0.110055  0.302691  0.338399  0.186258
    H   H81   0.204909  0.354556  0.306430  0.103439
    C   C189  0.584138  0.078232  0.286584  0.299633
    C   C190  0.628408  0.056941  0.309309  -0.097468
    C   C191  0.659081  0.108165  0.320287  -0.333965
    C   C192  0.631615  0.157087  0.303439  0.022024
    O   O60   0.585937  0.139195  0.282776  -0.168065
    H   H82   0.637288  0.009472  0.316732  0.092213
    H   H83   0.697309  0.110055  0.338399  0.186258
    H   H84   0.645444  0.204909  0.306430  0.103439
    C   C193  0.921769  0.415862  0.713415  0.299604
    C   C194  0.943059  0.371592  0.690691  -0.097424
    C   C195  0.891835  0.340919  0.679713  -0.333979
    C   C196  0.842913  0.368385  0.696561  0.022043
    O   O61   0.860805  0.414063  0.717223  -0.168065
    H   H85   0.990528  0.362712  0.683268  0.092199
    H   H86   0.889945  0.302691  0.661601  0.186245
    H   H87   0.795091  0.354556  0.693570  0.103436
    C   C197  0.415862  0.078232  0.713415  0.299625
    C   C198  0.371592  0.056941  0.690691  -0.097439
    C   C199  0.340919  0.108165  0.679713  -0.333965
    C   C200  0.368385  0.157088  0.696561  0.021997
    O   O62   0.414063  0.139195  0.717224  -0.168049
    H   H88   0.362712  0.009472  0.683268  0.092202
    H   H89   0.302691  0.110055  0.661601  0.186253
    H   H90   0.354556  0.204909  0.693570  0.103452
    C   C201  0.078232  0.584138  0.713415  0.299638
    C   C202  0.056941  0.628408  0.690691  -0.097434
    C   C203  0.108165  0.659081  0.679713  -0.333976
    C   C204  0.157088  0.631615  0.696561  0.022011
    O   O63   0.139195  0.585937  0.717224  -0.168064
    H   H91   0.009472  0.637288  0.683268  0.092193
    H   H92   0.110055  0.697309  0.661601  0.186256
    H   H93   0.204909  0.645444  0.693570  0.103449
    C   C205  0.584138  0.921769  0.713415  0.299622
    C   C206  0.628408  0.943059  0.690691  -0.097427
    C   C207  0.659081  0.891835  0.679713  -0.333985
    C   C208  0.631615  0.842913  0.696561  0.022052
    O   O64   0.585937  0.860805  0.717223  -0.168072
    H   H94   0.637288  0.990528  0.683268  0.092199
    H   H95   0.697309  0.889945  0.661601  0.186245
    H   H96   0.645444  0.795091  0.693570  0.103435
    C   C209  0.812296  0.918293  0.453901  0.154279
    C   C210  0.792019  0.904260  0.420963  -0.202851
    C   C211  0.831072  0.859744  0.409175  -0.191176
    C   C212  0.872092  0.849259  0.435779  -0.101834
    O   O65   0.860763  0.884615  0.463181  -0.006448
    H   H97   0.753308  0.924275  0.407121  0.156155
    H   H98   0.829909  0.837016  0.384154  0.149624
    H   H99   0.909370  0.815859  0.434833  0.111416
    C   C213  0.081707  0.812296  0.453901  0.153879
    C   C214  0.095740  0.792019  0.420963  -0.202727
    C   C215  0.140256  0.831072  0.409175  -0.191182
    C   C216  0.150741  0.872092  0.435779  -0.101986
    O   O66   0.115385  0.860763  0.463181  -0.006048
    H   H100  0.075725  0.753308  0.407121  0.156130
    H   H101  0.162984  0.829909  0.384154  0.149627
    H   H102  0.184141  0.909370  0.434833  0.111455
    C   C217  0.187704  0.081707  0.453901  0.154013
    C   C218  0.207981  0.095740  0.420963  -0.202793
    C   C219  0.168928  0.140256  0.409175  -0.191157
    C   C220  0.127908  0.150741  0.435779  -0.102018
    O   O67   0.139237  0.115385  0.463181  -0.006057
    H   H103  0.246692  0.075725  0.407121  0.156147
    H   H104  0.170091  0.162984  0.384154  0.149624
    H   H105  0.090630  0.184141  0.434833  0.111462
    C   C221  0.918293  0.187704  0.453901  0.153981
    C   C222  0.904260  0.207981  0.420963  -0.202788
    C   C223  0.859744  0.168928  0.409175  -0.191152
    C   C224  0.849259  0.127908  0.435779  -0.102011
    O   O68   0.884615  0.139237  0.463181  -0.006071
    H   H106  0.924275  0.246692  0.407121  0.156145
    H   H107  0.837016  0.170091  0.384154  0.149623
    H   H108  0.815859  0.090630  0.434833  0.111456
    C   C225  0.812296  0.081707  0.546099  0.154209
    C   C226  0.792019  0.095740  0.579037  -0.202927
    C   C227  0.831072  0.140256  0.590825  -0.191172
    C   C228  0.872092  0.150741  0.564221  -0.101999
    O   O69   0.860763  0.115385  0.536819  -0.006112
    H   H109  0.753308  0.075725  0.592879  0.156212
    H   H110  0.829909  0.162984  0.615846  0.149651
    H   H111  0.909370  0.184141  0.565167  0.111452
    C   C229  0.081707  0.187704  0.546099  0.154066
    C   C230  0.095740  0.207981  0.579037  -0.202882
    C   C231  0.140256  0.168928  0.590825  -0.191158
    C   C232  0.150741  0.127908  0.564221  -0.101981
    O   O70   0.115385  0.139237  0.536819  -0.006098
    H   H112  0.075725  0.246692  0.592879  0.156199
    H   H113  0.162984  0.170091  0.615846  0.149630
    H   H114  0.184141  0.090630  0.565167  0.111447
    C   C233  0.187704  0.918293  0.546099  0.154269
    C   C234  0.207981  0.904260  0.579037  -0.202980
    C   C235  0.168928  0.859744  0.590825  -0.191078
    C   C236  0.127908  0.849259  0.564221  -0.102074
    O   O71   0.139237  0.884615  0.536819  -0.006168
    H   H115  0.246692  0.924275  0.592879  0.156216
    H   H116  0.170091  0.837016  0.615846  0.149615
    H   H117  0.090630  0.815859  0.565167  0.111481
    C   C237  0.918293  0.812296  0.546099  0.154632
    C   C238  0.904260  0.792019  0.579037  -0.203378
    C   C239  0.859744  0.831072  0.590825  -0.190901
    C   C240  0.849259  0.872092  0.564221  -0.102457
    O   O72   0.884615  0.860763  0.536819  -0.005791
    H   H118  0.924275  0.753308  0.592879  0.156341
    H   H119  0.837016  0.829909  0.615846  0.149629
    H   H120  0.815859  0.909370  0.565167  0.111567
    C   C241  0.312296  0.418293  0.953901  0.154002
    C   C242  0.292019  0.404260  0.920963  -0.202801
    C   C243  0.331072  0.359744  0.909175  -0.191136
    C   C244  0.372092  0.349259  0.935779  -0.102038
    O   O73   0.360763  0.384615  0.963181  -0.006063
    H   H121  0.253308  0.424275  0.907121  0.156147
    H   H122  0.329909  0.337015  0.884154  0.149618
    H   H123  0.409370  0.315859  0.934833  0.111472
    C   C245  0.581707  0.312296  0.953901  0.153995
    C   C246  0.595740  0.292019  0.920963  -0.202798
    C   C247  0.640256  0.331072  0.909175  -0.191130
    C   C248  0.650741  0.372092  0.935779  -0.102044
    O   O74   0.615385  0.360763  0.963181  -0.006058
    H   H124  0.575725  0.253308  0.907121  0.156145
    H   H125  0.662984  0.329909  0.884154  0.149616
    H   H126  0.684141  0.409370  0.934833  0.111475
    C   C249  0.687704  0.581707  0.953901  0.153975
    C   C250  0.707981  0.595740  0.920963  -0.202795
    C   C251  0.668928  0.640256  0.909175  -0.191128
    C   C252  0.627908  0.650741  0.935779  -0.102043
    O   O75   0.639237  0.615385  0.963181  -0.006052
    H   H127  0.746692  0.575725  0.907121  0.156146
    H   H128  0.670091  0.662984  0.884154  0.149616
    H   H129  0.590630  0.684141  0.934833  0.111474
    C   C253  0.418293  0.687704  0.953901  0.153977
    C   C254  0.404260  0.707981  0.920963  -0.202805
    C   C255  0.359744  0.668928  0.909175  -0.191128
    C   C256  0.349259  0.627908  0.935779  -0.102034
    O   O76   0.384615  0.639237  0.963181  -0.006053
    H   H130  0.424275  0.746692  0.907121  0.156150
    H   H131  0.337016  0.670091  0.884154  0.149616
    H   H132  0.315859  0.590630  0.934833  0.111472
    C   C257  0.312296  0.581707  0.046099  0.153997
    C   C258  0.292019  0.595740  0.079037  -0.202765
    C   C259  0.331072  0.640256  0.090825  -0.191196
    C   C260  0.372092  0.650741  0.064221  -0.101984
    O   O77   0.360763  0.615385  0.036819  -0.006082
    H   H133  0.253308  0.575725  0.092879  0.156141
    H   H134  0.329909  0.662984  0.115846  0.149638
    H   H135  0.409370  0.684141  0.065167  0.111452
    C   C261  0.581707  0.687704  0.046099  0.154079
    C   C262  0.595740  0.707981  0.079037  -0.202907
    C   C263  0.640256  0.668928  0.090825  -0.191121
    C   C264  0.650741  0.627908  0.064221  -0.102004
    O   O78   0.615385  0.639237  0.036819  -0.006088
    H   H136  0.575725  0.746692  0.092879  0.156202
    H   H137  0.662984  0.670091  0.115846  0.149618
    H   H138  0.684141  0.590630  0.065167  0.111454
    C   C265  0.687704  0.418293  0.046099  0.154093
    C   C266  0.707981  0.404260  0.079037  -0.202912
    C   C267  0.668928  0.359744  0.090825  -0.191129
    C   C268  0.627908  0.349259  0.064221  -0.102000
    O   O79   0.639237  0.384615  0.036819  -0.006093
    H   H139  0.746692  0.424275  0.092879  0.156205
    H   H140  0.670091  0.337016  0.115846  0.149621
    H   H141  0.590630  0.315859  0.065167  0.111453
    C   C269  0.418293  0.312296  0.046099  0.154109
    C   C270  0.404260  0.292019  0.079037  -0.202903
    C   C271  0.359744  0.331072  0.090825  -0.191138
    C   C272  0.349259  0.372092  0.064221  -0.102000
    O   O80   0.384615  0.360763  0.036819  -0.006100
    H   H142  0.424275  0.253308  0.092879  0.156201
    H   H143  0.337016  0.329909  0.115846  0.149625
    H   H144  0.315859  0.409370  0.065167  0.111455
