# Generated by REPEAT Assigner based on pymatgen
data_DB0-m2_o1_o3_f0_pcu.sym.17_sqe
_audit_creation_date              2022-05-24
_audit_creation_method            REPEAT_Assigner
_cell_length_a                    10.853263
_cell_length_b                    9.403348
_cell_length_c                    19.319542
_cell_angle_alpha                 90.000000
_cell_angle_beta                  89.995038
_cell_angle_gamma                 90.000000
_cell_volume                      1971.694664
_symmetry_space_group_name_H-M    P1
_symmetry_Int_Tables_number       1
loop_
    _symmetry_equiv_pos_site_id
    _symmetry_equiv_pos_as_xyz
    1  x,y,z
loop_
    _atom_site_type_symbol
    _atom_site_label
    _atom_site_fract_x
    _atom_site_fract_y
    _atom_site_fract_z
    _atom_type_partial_charge
    O   O1   0.321326  0.621819  0.502119  -0.561781
    O   O2   0.680072  0.378145  0.497749  -0.580492
    O   O3   0.679486  0.622372  0.502579  -0.581785
    O   O4   0.322045  0.377322  0.498657  -0.575961
    C   C1   0.871708  0.500671  0.499029  0.044676
    C   C2   0.127462  0.499341  0.499312  -0.006586
    C   C3   0.263486  0.499581  0.499842  0.609641
    C   C4   0.737299  0.500562  0.499466  0.579153
    O   O5   0.496544  0.621648  0.399446  -0.604905
    O   O6   0.499822  0.379311  0.601265  -0.604562
    O   O7   0.495653  0.622776  0.600657  -0.586369
    O   O8   0.498367  0.376777  0.400103  -0.597647
    C   C5   0.500016  0.498727  0.367209  0.837125
    C   C6   0.500278  0.501548  0.633492  0.844507
    Cu  Cu1  0.500838  0.642140  0.500324  0.807916
    Cu  Cu2  0.500238  0.357648  0.500049  0.844600
    H   H1   0.366047  0.131989  0.423532  0.123139
    H   H2   0.644995  0.867113  0.572319  0.120483
    H   H3   0.643867  0.128542  0.575197  0.113883
    H   H4   0.367838  0.871532  0.420890  0.126154
    C   C7   0.062373  0.372850  0.501119  -0.096960
    C   C8   0.935927  0.627176  0.496675  -0.126568
    C   C9   0.935296  0.373538  0.500961  -0.132726
    C   C10  0.062993  0.626391  0.496882  -0.101179
    H   H5   0.110059  0.272213  0.502476  0.108359
    H   H6   0.888179  0.728091  0.494068  0.119041
    H   H7   0.886837  0.273079  0.502171  0.120024
    H   H8   0.110759  0.726842  0.494567  0.106759
    C   C11  0.497885  0.374078  0.745620  -0.294374
    C   C12  0.501708  0.625730  0.255295  -0.303207
    C   C13  0.497823  0.372037  0.255113  -0.298856
    C   C14  0.502050  0.627703  0.745584  -0.297916
    H   H9   0.496940  0.273766  0.718548  0.145871
    H   H10  0.502846  0.725592  0.282689  0.151671
    H   H11  0.496337  0.270928  0.281874  0.147513
    H   H12  0.503851  0.728683  0.718755  0.142848
    C   C15  0.497705  0.373775  0.817056  0.668249
    C   C16  0.502694  0.626367  0.183864  0.665180
    C   C17  0.498023  0.371643  0.183748  0.665398
    C   C18  0.502687  0.627925  0.816871  0.674450
    C   C19  0.500161  0.500907  0.853057  -0.630258
    C   C20  0.500852  0.499025  0.147632  -0.615764
    C   C21  0.425534  0.074273  0.458394  -0.015084
    C   C22  0.580238  0.925343  0.540906  -0.027116
    C   C23  0.579593  0.072075  0.542189  0.001511
    C   C24  0.426270  0.927783  0.457070  -0.032349
    C   C25  0.499680  0.501178  0.709375  -0.170915
    C   C26  0.499513  0.498624  0.291188  -0.161684
    C   C27  0.392446  0.476507  0.964806  -0.246367
    C   C28  0.608898  0.523373  0.035953  -0.246275
    C   C29  0.392886  0.475275  0.036153  -0.252304
    C   C30  0.608545  0.524428  0.964577  -0.247434
    H   H13  0.307061  0.459455  0.937194  0.155003
    H   H14  0.693949  0.540874  0.063758  0.153353
    H   H15  0.308286  0.456255  0.064163  0.153386
    H   H16  0.693257  0.543809  0.936690  0.152186
    N   N1   0.500303  0.854916  0.500272  -0.003163
    N   N2   0.502501  0.144906  0.501550  -0.033512
    C   C31  0.500980  0.499141  0.071850  0.321733
    C   C32  0.500328  0.500832  0.928864  0.325155
    N   N3   0.497680  0.241288  0.852946  -0.927867
    H   H17  0.418272  0.235376  0.883342  0.338208
    H   H18  0.574846  0.238177  0.885253  0.340818
    N   N4   0.503362  0.759395  0.148366  -0.928419
    H   H19  0.426673  0.763639  0.115790  0.342504
    H   H20  0.583230  0.766143  0.118441  0.337489
    N   N5   0.497755  0.238629  0.148214  -0.931710
    H   H21  0.575454  0.233296  0.116458  0.345128
    H   H22  0.418130  0.231525  0.118157  0.338069
    N   N6   0.503195  0.760562  0.852400  -0.925454
    H   H23  0.583397  0.766982  0.882006  0.333077
    H   H24  0.426106  0.764082  0.884677  0.343288
