# Generated by REPEAT Assigner based on pymatgen
data_DB0-m2_o1_o2_f0_pcu.sym.32_sqe
_audit_creation_date              2022-05-24
_audit_creation_method            REPEAT_Assigner
_cell_length_a                    10.970481
_cell_length_b                    9.380561
_cell_length_c                    15.067732
_cell_angle_alpha                 90.000000
_cell_angle_beta                  90.006044
_cell_angle_gamma                 90.000000
_cell_volume                      1550.609274
_symmetry_space_group_name_H-M    P1
_symmetry_Int_Tables_number       1
loop_
    _symmetry_equiv_pos_site_id
    _symmetry_equiv_pos_as_xyz
    1  x,y,z
loop_
    _atom_site_type_symbol
    _atom_site_label
    _atom_site_fract_x
    _atom_site_fract_y
    _atom_site_fract_z
    _atom_type_partial_charge
    O   O1   0.325702  0.617977  0.477891  -0.640526
    O   O2   0.676152  0.380025  0.481752  -0.628482
    O   O3   0.675429  0.617804  0.519137  -0.663023
    O   O4   0.324860  0.380097  0.514920  -0.596044
    N   N1   0.500681  0.852861  0.498494  -0.069472
    N   N2   0.500951  0.144927  0.498242  0.181325
    C   C1   0.266346  0.499118  0.495937  0.773848
    C   C2   0.734643  0.499133  0.500498  0.861208
    O   O5   0.528775  0.618447  0.371226  -0.579014
    O   O6   0.523191  0.379826  0.626233  -0.574597
    O   O7   0.472289  0.618467  0.625864  -0.570436
    O   O8   0.477890  0.379619  0.370468  -0.590724
    C   C3   0.503784  0.499299  0.329116  0.604639
    C   C4   0.497348  0.499087  0.667777  0.577780
    Cu  Cu1  0.500962  0.639541  0.498472  1.028116
    Cu  Cu2  0.500253  0.358331  0.498324  0.802024
    H   H1   0.410933  0.127512  0.374650  0.183394
    H   H2   0.581582  0.868472  0.624926  0.069032
    H   H3   0.584378  0.127675  0.624183  0.165935
    H   H4   0.414634  0.867963  0.374012  0.066945
    C   C5   0.450852  0.072054  0.430305  -0.178464
    C   C6   0.544681  0.925198  0.568547  0.080892
    C   C7   0.545612  0.072228  0.568257  -0.143864
    C   C8   0.452253  0.924964  0.429876  0.098722
    C   C9   0.063396  0.372425  0.500036  -0.003996
    C   C10  0.936913  0.626808  0.494797  0.114084
    C   C11  0.937166  0.372763  0.502955  0.114056
    C   C12  0.063364  0.626938  0.493455  0.009233
    C   C13  0.535908  0.620823  0.093738  -0.160849
    C   C14  0.533193  0.379386  0.903050  -0.124318
    C   C15  0.464437  0.620488  0.903067  -0.157271
    C   C16  0.466985  0.379737  0.094020  -0.140117
    H   H5   0.565374  0.715686  0.059242  0.115494
    H   H6   0.563814  0.284832  0.937326  0.107868
    H   H7   0.434853  0.715294  0.937641  0.111753
    H   H8   0.436089  0.285245  0.059710  0.108678
    C   C17  0.537128  0.620549  0.185307  -0.079404
    C   C18  0.531868  0.378873  0.811539  -0.138359
    C   C19  0.463367  0.620170  0.811519  -0.081543
    C   C20  0.468534  0.379315  0.185466  -0.109289
    H   H9   0.565624  0.716039  0.219652  0.106752
    H   H10  0.559744  0.283171  0.777198  0.119918
    H   H11  0.435069  0.715441  0.776888  0.104568
    H   H12  0.440736  0.283818  0.220043  0.107680
    C   C21  0.503545  0.499732  0.231739  -0.015588
    C   C22  0.497156  0.499296  0.765162  0.007808
    C   C23  0.500783  0.500367  0.047302  0.090554
    C   C24  0.499494  0.500162  0.949610  0.079944
    C   C25  0.871110  0.499723  0.499740  -0.394892
    C   C26  0.129618  0.499590  0.496105  -0.279141
    C   C27  0.122751  0.232297  0.499999  0.520096
    O   O9   0.171145  0.188105  0.432541  -0.465686
    N   N3   0.123251  0.146851  0.578403  -0.440973
    H   H13  0.214130  0.127018  0.594877  0.251910
    H   H14  0.085213  0.207431  0.629496  0.192530
    C   C28  0.876490  0.766138  0.489566  0.509058
    O   O10  0.817724  0.797851  0.423739  -0.473821
    N   N4   0.889203  0.866543  0.560217  -0.536964
    H   H15  0.801796  0.893468  0.581539  0.295010
    H   H16  0.932684  0.815058  0.612849  0.210842
    C   C29  0.877037  0.233988  0.512346  0.466442
    O   O11  0.826018  0.203603  0.581700  -0.464724
    N   N5   0.877492  0.134555  0.440629  -0.421592
    H   H17  0.786794  0.112337  0.424878  0.249984
    H   H18  0.916667  0.184618  0.385699  0.188560
    C   C30  0.122723  0.766999  0.488904  0.535060
    O   O12  0.177813  0.812933  0.553140  -0.465795
    N   N6   0.110081  0.853276  0.411383  -0.515594
    H   H19  0.197379  0.877174  0.388498  0.287302
    H   H20  0.067332  0.791925  0.362647  0.205518
