# Generated by REPEAT Assigner based on pymatgen
data_DB0-m2_o1_o3_f0_nbo.sym.90
_audit_creation_date              2022-05-24
_audit_creation_method            REPEAT_Assigner
_cell_length_a                    21.508620
_cell_length_b                    21.508620
_cell_length_c                    38.469069
_cell_angle_alpha                 90.000000
_cell_angle_beta                  90.000000
_cell_angle_gamma                 90.000000
_cell_volume                      17796.589730
_symmetry_space_group_name_H-M    P1
_symmetry_Int_Tables_number       1
loop_
    _symmetry_equiv_pos_site_id
    _symmetry_equiv_pos_as_xyz
    1  x,y,z
loop_
    _atom_site_type_symbol
    _atom_site_label
    _atom_site_fract_x
    _atom_site_fract_y
    _atom_site_fract_z
    _atom_type_partial_charge
    O   O1    0.588640  0.051302  0.509577  -0.586611
    O   O2    0.948698  0.588640  0.509577  -0.586624
    O   O3    0.411360  0.948698  0.509577  -0.586618
    O   O4    0.051302  0.411360  0.509577  -0.586605
    O   O5    0.588640  0.948698  0.490424  -0.586618
    O   O6    0.948698  0.411360  0.490424  -0.586613
    O   O7    0.411360  0.051302  0.490424  -0.586596
    O   O8    0.051302  0.588640  0.490424  -0.586602
    O   O9    0.088640  0.551302  0.009577  -0.586591
    O   O10   0.448698  0.088640  0.009577  -0.586594
    O   O11   0.911360  0.448698  0.009577  -0.586594
    O   O12   0.551302  0.911360  0.009577  -0.586604
    O   O13   0.088640  0.448698  0.990424  -0.586589
    O   O14   0.448698  0.911360  0.990424  -0.586581
    O   O15   0.911360  0.551302  0.990424  -0.586586
    O   O16   0.551302  0.088640  0.990424  -0.586597
    C   C1    0.617750  0.000000  0.500000  0.657016
    C   C2    0.000000  0.617750  0.500000  0.657001
    C   C3    0.382250  0.000000  0.500000  0.656993
    C   C4    0.000000  0.382250  0.500000  0.656993
    C   C5    0.117750  0.500000  0.000000  0.656966
    C   C6    0.500000  0.117750  0.000000  0.656973
    C   C7    0.882250  0.500000  0.000000  0.656926
    C   C8    0.500000  0.882250  0.000000  0.656921
    O   O17   0.483044  0.051387  0.549681  -0.620132
    O   O18   0.948614  0.483044  0.549681  -0.620144
    O   O19   0.516956  0.948614  0.549681  -0.620153
    O   O20   0.051387  0.516956  0.549681  -0.620141
    O   O21   0.483044  0.948614  0.450320  -0.620163
    O   O22   0.948614  0.516956  0.450320  -0.620155
    O   O23   0.516956  0.051387  0.450320  -0.620146
    O   O24   0.051387  0.483044  0.450320  -0.620153
    O   O25   0.983044  0.551387  0.049681  -0.620134
    O   O26   0.448613  0.983044  0.049681  -0.620132
    O   O27   0.016956  0.448614  0.049681  -0.620132
    O   O28   0.551386  0.016956  0.049681  -0.620137
    O   O29   0.983044  0.448614  0.950320  -0.620144
    O   O30   0.448613  0.016956  0.950320  -0.620140
    O   O31   0.016956  0.551387  0.950320  -0.620145
    O   O32   0.551386  0.983044  0.950320  -0.620151
    C   C9    0.500000  0.000000  0.565920  0.777221
    C   C10   0.000000  0.500000  0.565920  0.777218
    C   C11   0.500000  0.000000  0.434080  0.777206
    C   C12   0.000000  0.500000  0.434080  0.777202
    C   C13   0.000000  0.500000  0.065920  0.777220
    C   C14   0.500000  0.000000  0.065920  0.777209
    C   C15   0.000000  0.500000  0.934080  0.777198
    C   C16   0.500000  0.000000  0.934080  0.777194
    Cu  Cu1   0.500000  0.060798  0.500000  0.962110
    Cu  Cu2   0.939202  0.500000  0.500000  0.962115
    Cu  Cu3   0.500000  0.939202  0.500000  0.962071
    Cu  Cu4   0.060798  0.500000  0.500000  0.962076
    Cu  Cu5   0.000000  0.560798  0.000000  0.962090
    Cu  Cu6   0.439202  0.000000  0.000000  0.962134
    Cu  Cu7   0.000000  0.439202  0.000000  0.962078
    Cu  Cu8   0.560798  0.000000  0.000000  0.962049
    C   C17   0.446377  0.985763  0.878152  -0.092993
    C   C18   0.014236  0.446378  0.878152  -0.093002
    C   C19   0.553622  0.014237  0.878152  -0.093000
    C   C20   0.985763  0.553623  0.878152  -0.092987
    C   C21   0.446377  0.014237  0.121848  -0.093013
    C   C22   0.014236  0.553623  0.121848  -0.092994
    C   C23   0.553622  0.985763  0.121848  -0.093011
    C   C24   0.985763  0.446378  0.121848  -0.092991
    C   C25   0.946378  0.485763  0.378152  -0.093021
    C   C26   0.514237  0.946378  0.378152  -0.093023
    C   C27   0.053622  0.514237  0.378152  -0.093015
    C   C28   0.485764  0.053623  0.378152  -0.093007
    C   C29   0.946378  0.514237  0.621848  -0.093024
    C   C30   0.514237  0.053622  0.621848  -0.093027
    C   C31   0.053622  0.485763  0.621848  -0.093021
    C   C32   0.485763  0.946378  0.621848  -0.093012
    H   H1    0.404303  0.973763  0.891963  0.121700
    H   H2    0.026237  0.404303  0.891963  0.121696
    H   H3    0.595696  0.026238  0.891963  0.121697
    H   H4    0.973762  0.595697  0.891963  0.121697
    H   H5    0.404303  0.026238  0.108037  0.121704
    H   H6    0.026237  0.595697  0.108037  0.121697
    H   H7    0.595696  0.973762  0.108037  0.121696
    H   H8    0.973762  0.404303  0.108037  0.121691
    H   H9    0.904303  0.473763  0.391963  0.121700
    H   H10   0.526237  0.904303  0.391963  0.121702
    H   H11   0.095697  0.526238  0.391963  0.121698
    H   H12   0.473763  0.095697  0.391963  0.121700
    H   H13   0.904303  0.526238  0.608037  0.121699
    H   H14   0.526237  0.095697  0.608037  0.121701
    H   H15   0.095697  0.473763  0.608037  0.121698
    H   H16   0.473763  0.904303  0.608037  0.121695
    C   C33   0.446801  0.984309  0.842359  -0.179068
    C   C34   0.015690  0.446801  0.842359  -0.179044
    C   C35   0.553199  0.015691  0.842359  -0.179048
    C   C36   0.984309  0.553199  0.842359  -0.179071
    C   C37   0.446801  0.015691  0.157641  -0.179043
    C   C38   0.015690  0.553199  0.157641  -0.179052
    C   C39   0.553199  0.984310  0.157641  -0.179032
    C   C40   0.984309  0.446801  0.157641  -0.179062
    C   C41   0.946801  0.484310  0.342359  -0.179037
    C   C42   0.515690  0.946801  0.342359  -0.179041
    C   C43   0.053199  0.515691  0.342359  -0.179044
    C   C44   0.484310  0.053199  0.342359  -0.179043
    C   C45   0.946801  0.515691  0.657641  -0.179038
    C   C46   0.515690  0.053199  0.657641  -0.179032
    C   C47   0.053199  0.484310  0.657641  -0.179028
    C   C48   0.484309  0.946801  0.657641  -0.179053
    H   H17   0.405173  0.970970  0.828517  0.100885
    H   H18   0.029030  0.405173  0.828517  0.100880
    H   H19   0.594826  0.029030  0.828517  0.100883
    H   H20   0.970970  0.594827  0.828517  0.100887
    H   H21   0.405173  0.029031  0.171483  0.100879
    H   H22   0.029030  0.594827  0.171483  0.100877
    H   H23   0.594826  0.970970  0.171483  0.100877
    H   H24   0.970969  0.405173  0.171483  0.100885
    H   H25   0.905173  0.470970  0.328517  0.100882
    H   H26   0.529030  0.905173  0.328517  0.100883
    H   H27   0.094827  0.529030  0.328517  0.100883
    H   H28   0.470970  0.094827  0.328517  0.100880
    H   H29   0.905173  0.529031  0.671483  0.100882
    H   H30   0.529030  0.094827  0.671483  0.100879
    H   H31   0.094827  0.470970  0.671483  0.100877
    H   H32   0.470970  0.905173  0.671483  0.100886
    C   C49   0.500000  0.000000  0.824252  0.289815
    C   C50   0.000000  0.500000  0.824252  0.289826
    C   C51   0.500000  0.000000  0.175748  0.289792
    C   C52   0.000000  0.500000  0.175748  0.289824
    C   C53   0.000000  0.500000  0.324252  0.289797
    C   C54   0.500000  0.000000  0.324252  0.289795
    C   C55   0.000000  0.500000  0.675748  0.289791
    C   C56   0.500000  0.000000  0.675748  0.289800
    C   C57   0.500000  0.000000  0.896137  -0.113627
    C   C58   0.000000  0.500000  0.896137  -0.113635
    C   C59   0.500000  0.000000  0.103863  -0.113623
    C   C60   0.000000  0.500000  0.103863  -0.113647
    C   C61   0.000000  0.500000  0.396137  -0.113595
    C   C62   0.500000  0.000000  0.396137  -0.113606
    C   C63   0.000000  0.500000  0.603863  -0.113600
    C   C64   0.500000  0.000000  0.603863  -0.113601
    C   C65   0.460795  0.039670  0.768002  -0.072759
    C   C66   0.960330  0.460795  0.768002  -0.072748
    C   C67   0.539205  0.960330  0.768002  -0.072761
    C   C68   0.039670  0.539205  0.768002  -0.072758
    C   C69   0.460795  0.960330  0.231998  -0.072732
    C   C70   0.960330  0.539205  0.231998  -0.072733
    C   C71   0.539205  0.039670  0.231998  -0.072744
    C   C72   0.039670  0.460795  0.231998  -0.072741
    C   C73   0.960795  0.539670  0.268002  -0.072756
    C   C74   0.460330  0.960795  0.268002  -0.072771
    C   C75   0.039205  0.460330  0.268002  -0.072751
    C   C76   0.539670  0.039205  0.268002  -0.072745
    C   C77   0.960795  0.460330  0.731998  -0.072743
    C   C78   0.460330  0.039205  0.731998  -0.072737
    C   C79   0.039205  0.539670  0.731998  -0.072730
    C   C80   0.539670  0.960795  0.731998  -0.072718
    C   C81   0.500000  0.000000  0.713935  -0.081243
    C   C82   0.000000  0.500000  0.713935  -0.081232
    C   C83   0.500000  0.000000  0.286065  -0.081224
    C   C84   0.000000  0.500000  0.286065  -0.081224
    C   C85   0.000000  0.500000  0.213935  -0.081232
    C   C86   0.500000  0.000000  0.213935  -0.081219
    C   C87   0.000000  0.500000  0.786065  -0.081229
    C   C88   0.500000  0.000000  0.786065  -0.081216
    C   C89   0.717984  0.960127  0.478417  -0.155567
    C   C90   0.039873  0.717984  0.478417  -0.155572
    C   C91   0.282016  0.039873  0.478417  -0.155560
    C   C92   0.960127  0.282016  0.478417  -0.155556
    C   C93   0.717984  0.039873  0.521583  -0.155548
    C   C94   0.039873  0.282016  0.521583  -0.155543
    C   C95   0.282016  0.960127  0.521583  -0.155566
    C   C96   0.960127  0.717984  0.521583  -0.155576
    C   C97   0.217984  0.460127  0.978417  -0.155573
    C   C98   0.539873  0.217984  0.978417  -0.155574
    C   C99   0.782015  0.539873  0.978417  -0.155564
    C   C100  0.460127  0.782016  0.978417  -0.155588
    C   C101  0.217984  0.539873  0.021583  -0.155561
    C   C102  0.539873  0.782016  0.021583  -0.155560
    C   C103  0.782015  0.460127  0.021583  -0.155600
    C   C104  0.460127  0.217984  0.021583  -0.155564
    H   H33   0.693442  0.928966  0.461173  0.124801
    H   H34   0.071034  0.693441  0.461173  0.124797
    H   H35   0.306559  0.071034  0.461173  0.124791
    H   H36   0.928966  0.306558  0.461173  0.124794
    H   H37   0.693442  0.071034  0.538827  0.124795
    H   H38   0.071034  0.306558  0.538827  0.124790
    H   H39   0.306559  0.928967  0.538827  0.124798
    H   H40   0.928967  0.693441  0.538827  0.124805
    H   H41   0.193441  0.428966  0.961173  0.124799
    H   H42   0.571033  0.193442  0.961173  0.124801
    H   H43   0.806558  0.571034  0.961173  0.124792
    H   H44   0.428966  0.806559  0.961173  0.124795
    H   H45   0.193441  0.571034  0.038827  0.124795
    H   H46   0.571033  0.806559  0.038827  0.124797
    H   H47   0.806558  0.428966  0.038827  0.124801
    H   H48   0.428966  0.193442  0.038827  0.124801
    C   C105  0.782062  0.960934  0.477959  -0.019488
    C   C106  0.039067  0.782062  0.477959  -0.019482
    C   C107  0.217939  0.039067  0.477959  -0.019479
    C   C108  0.960934  0.217939  0.477959  -0.019475
    C   C109  0.782062  0.039067  0.522041  -0.019508
    C   C110  0.039067  0.217939  0.522041  -0.019496
    C   C111  0.217939  0.960934  0.522041  -0.019469
    C   C112  0.960934  0.782062  0.522041  -0.019482
    C   C113  0.282061  0.460934  0.977959  -0.019443
    C   C114  0.539066  0.282062  0.977959  -0.019454
    C   C115  0.717938  0.539067  0.977959  -0.019509
    C   C116  0.460933  0.717939  0.977959  -0.019491
    C   C117  0.282061  0.539067  0.022041  -0.019464
    C   C118  0.539066  0.717939  0.022041  -0.019523
    C   C119  0.717938  0.460934  0.022041  -0.019472
    C   C120  0.460933  0.282062  0.022041  -0.019473
    H   H49   0.806574  0.929739  0.460722  0.102812
    H   H50   0.070261  0.806575  0.460722  0.102813
    H   H51   0.193426  0.070261  0.460722  0.102815
    H   H52   0.929739  0.193426  0.460722  0.102809
    H   H53   0.806574  0.070261  0.539279  0.102821
    H   H54   0.070261  0.193426  0.539279  0.102818
    H   H55   0.193426  0.929739  0.539278  0.102808
    H   H56   0.929739  0.806575  0.539278  0.102810
    H   H57   0.306574  0.429739  0.960722  0.102786
    H   H58   0.570261  0.306574  0.960722  0.102794
    H   H59   0.693425  0.570261  0.960722  0.102822
    H   H60   0.429739  0.693426  0.960722  0.102832
    H   H61   0.306574  0.570261  0.039279  0.102800
    H   H62   0.570261  0.693426  0.039279  0.102824
    H   H63   0.693425  0.429739  0.039278  0.102822
    H   H64   0.429739  0.306574  0.039279  0.102800
    C   C121  0.814336  0.000000  0.500000  -0.083067
    C   C122  0.000000  0.814335  0.500000  -0.083077
    C   C123  0.185665  0.000000  0.500000  -0.083111
    C   C124  0.000000  0.185665  0.500000  -0.083108
    C   C125  0.314335  0.500000  0.000000  -0.083100
    C   C126  0.500000  0.314336  0.000000  -0.083087
    C   C127  0.685664  0.500000  0.000000  -0.083082
    C   C128  0.500000  0.685665  0.000000  -0.083066
    C   C129  0.685722  0.000000  0.500000  0.027633
    C   C130  0.000000  0.685723  0.500000  0.027653
    C   C131  0.314278  0.000000  0.500000  0.027651
    C   C132  0.000000  0.314278  0.500000  0.027640
    C   C133  0.185722  0.500000  0.000000  0.027642
    C   C134  0.500000  0.185722  0.000000  0.027638
    C   C135  0.814277  0.500000  0.000000  0.027694
    C   C136  0.500000  0.814278  0.000000  0.027698
    O   O33   0.981241  0.088536  0.471604  -0.551418
    O   O34   0.911464  0.981241  0.471604  -0.551416
    O   O35   0.018759  0.911464  0.471604  -0.551420
    O   O36   0.088536  0.018760  0.471604  -0.551418
    O   O37   0.981241  0.911464  0.528396  -0.551421
    O   O38   0.911464  0.018760  0.528396  -0.551419
    O   O39   0.018759  0.088536  0.528396  -0.551417
    O   O40   0.088536  0.981241  0.528396  -0.551413
    O   O41   0.481240  0.588536  0.971604  -0.551407
    O   O42   0.411464  0.481241  0.971604  -0.551302
    O   O43   0.518759  0.411464  0.971604  -0.551321
    O   O44   0.588536  0.518759  0.971604  -0.551369
    O   O45   0.481240  0.411464  0.028396  -0.551306
    O   O46   0.411464  0.518760  0.028396  -0.551323
    O   O47   0.518759  0.588536  0.028396  -0.551361
    O   O48   0.588536  0.481241  0.028396  -0.551407
    C   C137  0.000000  0.117680  0.500000  0.635934
    C   C138  0.882321  0.000000  0.500000  0.635898
    C   C139  0.000000  0.882321  0.500000  0.635899
    C   C140  0.117680  0.000000  0.500000  0.635921
    C   C141  0.500000  0.617680  0.000000  0.635894
    C   C142  0.382320  0.500000  0.000000  0.635796
    C   C143  0.500000  0.382321  0.000000  0.635795
    C   C144  0.617679  0.500000  0.000000  0.635907
    Cu  Cu9   0.000000  0.000000  0.466243  0.905617
    Cu  Cu10  0.000000  0.000000  0.533757  0.905614
    Cu  Cu11  0.500000  0.500000  0.966243  0.905465
    Cu  Cu12  0.500000  0.500000  0.033757  0.905462
    C   C145  0.420280  0.082705  0.786966  0.228131
    C   C146  0.445864  0.130866  0.805899  -0.092627
    C   C147  0.407993  0.170835  0.824189  0.028947
    Cl  Cl1   0.440742  0.231371  0.848469  -0.096120
    C   C148  0.344407  0.163053  0.823453  -0.092162
    C   C149  0.318697  0.115143  0.804498  -0.158321
    C   C150  0.356543  0.074924  0.786347  -0.153390
    H   H65   0.495697  0.137274  0.806416  0.064818
    H   H66   0.314714  0.194440  0.837799  0.111919
    H   H67   0.268845  0.108914  0.804005  0.132156
    H   H68   0.336250  0.036941  0.771870  0.092217
    C   C151  0.917294  0.420280  0.786966  0.228124
    C   C152  0.869134  0.445865  0.805899  -0.092637
    C   C153  0.829165  0.407993  0.824189  0.028967
    Cl  Cl2   0.768629  0.440743  0.848468  -0.096124
    C   C154  0.836946  0.344408  0.823453  -0.092189
    C   C155  0.884857  0.318697  0.804498  -0.158309
    C   C156  0.925076  0.356543  0.786347  -0.153399
    H   H69   0.862725  0.495698  0.806416  0.064825
    H   H70   0.805560  0.314715  0.837799  0.111927
    H   H71   0.891085  0.268846  0.804005  0.132156
    H   H72   0.963059  0.336251  0.771870  0.092223
    C   C157  0.579720  0.917295  0.786966  0.228137
    C   C158  0.554135  0.869134  0.805899  -0.092662
    C   C159  0.592006  0.829165  0.824190  0.028968
    Cl  Cl3   0.559257  0.768629  0.848469  -0.096107
    C   C160  0.655592  0.836947  0.823453  -0.092190
    C   C161  0.681303  0.884857  0.804498  -0.158304
    C   C162  0.643457  0.925076  0.786347  -0.153396
    H   H73   0.504302  0.862725  0.806416  0.064828
    H   H74   0.685285  0.805560  0.837799  0.111920
    H   H75   0.731154  0.891085  0.804005  0.132156
    H   H76   0.663749  0.963059  0.771870  0.092217
    C   C163  0.082705  0.579720  0.786966  0.228157
    C   C164  0.130866  0.554135  0.805899  -0.092673
    C   C165  0.170835  0.592007  0.824190  0.028985
    Cl  Cl4   0.231371  0.559258  0.848469  -0.096117
    C   C166  0.163054  0.655592  0.823453  -0.092199
    C   C167  0.115143  0.681303  0.804498  -0.158292
    C   C168  0.074924  0.643457  0.786347  -0.153426
    H   H77   0.137274  0.504302  0.806417  0.064829
    H   H78   0.194440  0.685285  0.837799  0.111924
    H   H79   0.108915  0.731154  0.804005  0.132154
    H   H80   0.036941  0.663750  0.771870  0.092225
    C   C169  0.420280  0.917295  0.213035  0.228109
    C   C170  0.445864  0.869134  0.194101  -0.092633
    C   C171  0.407993  0.829165  0.175811  0.028963
    Cl  Cl5   0.440741  0.768629  0.151532  -0.096116
    C   C172  0.344407  0.836947  0.176547  -0.092171
    C   C173  0.318697  0.884857  0.195502  -0.158322
    C   C174  0.356543  0.925076  0.213653  -0.153373
    H   H81   0.495697  0.862726  0.193584  0.064816
    H   H82   0.314714  0.805561  0.162201  0.111921
    H   H83   0.268845  0.891086  0.195995  0.132155
    H   H84   0.336250  0.963060  0.228131  0.092204
    C   C175  0.917295  0.579720  0.213035  0.228123
    C   C176  0.869134  0.554136  0.194101  -0.092648
    C   C177  0.829165  0.592007  0.175811  0.028973
    Cl  Cl6   0.768629  0.559258  0.151532  -0.096119
    C   C178  0.836946  0.655593  0.176547  -0.092194
    C   C179  0.884857  0.681303  0.195502  -0.158303
    C   C180  0.925076  0.643457  0.213653  -0.153388
    H   H85   0.862725  0.504302  0.193584  0.064821
    H   H86   0.805560  0.685286  0.162201  0.111930
    H   H87   0.891085  0.731154  0.195995  0.132151
    H   H88   0.963059  0.663750  0.228130  0.092212
    C   C181  0.579720  0.082705  0.213034  0.228129
    C   C182  0.554136  0.130866  0.194101  -0.092643
    C   C183  0.592007  0.170835  0.175811  0.028970
    Cl  Cl7   0.559258  0.231371  0.151532  -0.096120
    C   C184  0.655592  0.163053  0.176547  -0.092172
    C   C185  0.681303  0.115143  0.195502  -0.158315
    C   C186  0.643457  0.074924  0.213653  -0.153394
    H   H89   0.504302  0.137275  0.193584  0.064820
    H   H90   0.685286  0.194439  0.162201  0.111917
    H   H91   0.731154  0.108914  0.195995  0.132156
    H   H92   0.663749  0.036941  0.228130  0.092217
    C   C187  0.082705  0.420280  0.213034  0.228116
    C   C188  0.130866  0.445865  0.194101  -0.092628
    C   C189  0.170835  0.407993  0.175811  0.028950
    Cl  Cl8   0.231371  0.440742  0.151531  -0.096122
    C   C190  0.163053  0.344408  0.176547  -0.092157
    C   C191  0.115143  0.318697  0.195502  -0.158324
    C   C192  0.074924  0.356543  0.213653  -0.153393
    H   H93   0.137274  0.495698  0.193584  0.064821
    H   H94   0.194439  0.314715  0.162201  0.111916
    H   H95   0.108914  0.268846  0.195995  0.132160
    H   H96   0.036941  0.336251  0.228130  0.092219
    C   C193  0.920280  0.582706  0.286966  0.228118
    C   C194  0.945865  0.630866  0.305899  -0.092608
    C   C195  0.907994  0.670835  0.324189  0.028936
    Cl  Cl9   0.940743  0.731371  0.348469  -0.096118
    C   C196  0.844408  0.663054  0.323453  -0.092161
    C   C197  0.818697  0.615144  0.304498  -0.158320
    C   C198  0.856543  0.574925  0.286347  -0.153401
    H   H97   0.995698  0.637275  0.306416  0.064816
    H   H98   0.814715  0.694440  0.337799  0.111919
    H   H99   0.768846  0.608915  0.304005  0.132161
    H   H100  0.836250  0.536941  0.271870  0.092222
    C   C199  0.417294  0.920281  0.286966  0.228170
    C   C200  0.369134  0.945865  0.305899  -0.092655
    C   C201  0.329165  0.907994  0.324190  0.028967
    Cl  Cl10  0.268629  0.940743  0.348469  -0.096113
    C   C202  0.336946  0.844408  0.323453  -0.092185
    C   C203  0.384856  0.818698  0.304498  -0.158305
    C   C204  0.425075  0.856544  0.286347  -0.153418
    H   H101  0.362726  0.995699  0.306417  0.064821
    H   H102  0.305560  0.814715  0.337799  0.111923
    H   H103  0.391085  0.768846  0.304005  0.132153
    H   H104  0.463059  0.836251  0.271870  0.092221
    C   C205  0.079720  0.417295  0.286966  0.228143
    C   C206  0.054135  0.369134  0.305899  -0.092651
    C   C207  0.092007  0.329165  0.324189  0.028968
    Cl  Cl11  0.059258  0.268629  0.348469  -0.096127
    C   C208  0.155592  0.336946  0.323453  -0.092183
    C   C209  0.181303  0.384857  0.304498  -0.158308
    C   C210  0.143457  0.425076  0.286347  -0.153404
    H   H105  0.004302  0.362726  0.306416  0.064827
    H   H106  0.185285  0.305560  0.337799  0.111926
    H   H107  0.231154  0.391085  0.304005  0.132157
    H   H108  0.163750  0.463059  0.271870  0.092221
    C   C211  0.582706  0.079720  0.286966  0.228121
    C   C212  0.630866  0.054135  0.305899  -0.092632
    C   C213  0.670835  0.092007  0.324189  0.028957
    Cl  Cl12  0.731371  0.059257  0.348468  -0.096122
    C   C214  0.663054  0.155592  0.323453  -0.092165
    C   C215  0.615144  0.181303  0.304498  -0.158318
    C   C216  0.574924  0.143457  0.286347  -0.153404
    H   H109  0.637275  0.004302  0.306416  0.064823
    H   H110  0.694440  0.185285  0.337799  0.111920
    H   H111  0.608915  0.231154  0.304005  0.132157
    H   H112  0.536941  0.163750  0.271870  0.092226
    C   C217  0.920280  0.417295  0.713034  0.228120
    C   C218  0.945865  0.369134  0.694101  -0.092638
    C   C219  0.907993  0.329165  0.675811  0.028964
    Cl  Cl13  0.940742  0.268629  0.651532  -0.096121
    C   C220  0.844408  0.336947  0.676547  -0.092171
    C   C221  0.818697  0.384857  0.695502  -0.158320
    C   C222  0.856543  0.425076  0.713653  -0.153393
    H   H113  0.995698  0.362726  0.693584  0.064822
    H   H114  0.814715  0.305561  0.662201  0.111919
    H   H115  0.768846  0.391086  0.695995  0.132160
    H   H116  0.836250  0.463059  0.728130  0.092218
    C   C223  0.417294  0.079720  0.713034  0.228122
    C   C224  0.369134  0.054135  0.694101  -0.092629
    C   C225  0.329165  0.092006  0.675811  0.028954
    Cl  Cl14  0.268629  0.059257  0.651531  -0.096123
    C   C226  0.336946  0.155592  0.676547  -0.092175
    C   C227  0.384856  0.181303  0.695502  -0.158311
    C   C228  0.425075  0.143457  0.713653  -0.153395
    H   H117  0.362725  0.004302  0.693584  0.064822
    H   H118  0.305560  0.185285  0.662201  0.111923
    H   H119  0.391085  0.231154  0.695995  0.132157
    H   H120  0.463059  0.163749  0.728130  0.092217
    C   C229  0.079720  0.582705  0.713035  0.228122
    C   C230  0.054136  0.630866  0.694101  -0.092640
    C   C231  0.092007  0.670835  0.675811  0.028969
    Cl  Cl15  0.059258  0.731371  0.651532  -0.096121
    C   C232  0.155593  0.663054  0.676547  -0.092184
    C   C233  0.181303  0.615143  0.695502  -0.158308
    C   C234  0.143457  0.574924  0.713653  -0.153396
    H   H121  0.004302  0.637275  0.693584  0.064818
    H   H122  0.185286  0.694440  0.662201  0.111926
    H   H123  0.231154  0.608915  0.695995  0.132155
    H   H124  0.163750  0.536941  0.728131  0.092214
    C   C235  0.582705  0.920280  0.713035  0.228106
    C   C236  0.630866  0.945865  0.694101  -0.092630
    C   C237  0.670835  0.907993  0.675811  0.028964
    Cl  Cl16  0.731371  0.940742  0.651532  -0.096124
    C   C238  0.663054  0.844408  0.676547  -0.092172
    C   C239  0.615143  0.818697  0.695502  -0.158320
    C   C240  0.574924  0.856543  0.713653  -0.153392
    H   H125  0.637274  0.995698  0.693584  0.064820
    H   H126  0.694440  0.814715  0.662201  0.111922
    H   H127  0.608915  0.768846  0.695995  0.132160
    H   H128  0.536941  0.836250  0.728130  0.092218
