# Generated by REPEAT Assigner based on pymatgen
data_DB0-m2_o1_o2_f0_pcu
_audit_creation_date              2022-05-24
_audit_creation_method            REPEAT_Assigner
_cell_length_a                    15.386318
_cell_length_b                    15.385213
_cell_length_c                    13.727987
_cell_angle_alpha                 90.000000
_cell_angle_beta                  90.000000
_cell_angle_gamma                 90.000000
_cell_volume                      3249.713562
_symmetry_space_group_name_H-M    P1
_symmetry_Int_Tables_number       1
loop_
    _symmetry_equiv_pos_site_id
    _symmetry_equiv_pos_as_xyz
    1  x,y,z
loop_
    _atom_site_type_symbol
    _atom_site_label
    _atom_site_fract_x
    _atom_site_fract_y
    _atom_site_fract_z
    _atom_type_partial_charge
    O   O1   0.089309  0.910753  0.083054  -0.600907
    O   O2   0.910909  0.089428  0.916959  -0.601141
    O   O3   0.910691  0.089247  0.083054  -0.600909
    O   O4   0.089091  0.910572  0.916959  -0.601140
    O   O5   0.910691  0.910753  0.916946  -0.600912
    O   O6   0.089091  0.089428  0.083041  -0.601138
    O   O7   0.089309  0.089247  0.916946  -0.600898
    O   O8   0.910909  0.910572  0.083041  -0.601147
    O   O9   0.588352  0.409850  0.082729  -0.609640
    O   O10  0.410107  0.588600  0.916500  -0.620473
    O   O11  0.411648  0.590150  0.082729  -0.609639
    O   O12  0.589893  0.411400  0.916500  -0.620468
    O   O13  0.411648  0.409850  0.917271  -0.609656
    O   O14  0.589893  0.588600  0.083500  -0.620486
    O   O15  0.588352  0.590150  0.917271  -0.609641
    O   O16  0.410107  0.411400  0.083500  -0.620529
    C   C1   0.119080  0.880815  0.999994  0.679061
    C   C2   0.880920  0.119185  0.999994  0.679074
    C   C3   0.880920  0.880815  0.000006  0.679070
    C   C4   0.119080  0.119185  0.000006  0.679077
    C   C5   0.618929  0.380770  0.999616  0.691478
    C   C6   0.381071  0.619230  0.999616  0.691486
    C   C7   0.381071  0.380770  0.000384  0.691543
    C   C8   0.618929  0.619230  0.000384  0.691486
    H   H1   0.633257  0.459880  0.430445  0.121272
    H   H2   0.366743  0.459880  0.569555  0.121270
    H   H3   0.366743  0.540120  0.430445  0.121274
    H   H4   0.633257  0.540120  0.569555  0.121269
    H   H5   0.140273  0.000436  0.424623  0.133043
    H   H6   0.859727  0.000436  0.575377  0.133045
    H   H7   0.859727  0.999564  0.424623  0.133045
    H   H8   0.140273  0.999564  0.575377  0.133044
    C   C9   0.573152  0.480031  0.293315  0.053355
    C   C10  0.426848  0.480031  0.706685  0.053359
    C   C11  0.426848  0.519969  0.293315  0.053335
    C   C12  0.573152  0.519969  0.706685  0.053351
    C   C13  0.075593  0.000173  0.291297  0.122611
    C   C14  0.924407  0.000173  0.708703  0.122608
    C   C15  0.924407  0.999827  0.291297  0.122610
    C   C16  0.075593  0.999827  0.708703  0.122605
    H   H9   0.631932  0.464235  0.254123  0.115139
    H   H10  0.368068  0.464235  0.745877  0.115142
    H   H11  0.368068  0.535765  0.254123  0.115146
    H   H12  0.631932  0.535765  0.745877  0.115142
    H   H13  0.136322  0.000309  0.251741  0.098026
    H   H14  0.863678  0.000309  0.748259  0.098030
    H   H15  0.863678  0.999691  0.251741  0.098030
    H   H16  0.136322  0.999691  0.748259  0.098029
    Cu  Cu1  0.000000  0.000000  0.096357  0.922452
    Cu  Cu2  0.000000  0.000000  0.903643  0.922442
    Cu  Cu3  0.500000  0.500000  0.096934  0.940129
    Cu  Cu4  0.500000  0.500000  0.903066  0.940082
    C   C17  0.500000  0.500000  0.446016  0.140868
    C   C18  0.500000  0.500000  0.553984  0.140856
    C   C19  0.000000  0.000000  0.445239  0.165891
    C   C20  0.000000  0.000000  0.554761  0.165889
    C   C21  0.574111  0.479003  0.393937  -0.213336
    C   C22  0.425889  0.479003  0.606063  -0.213337
    C   C23  0.425889  0.520997  0.393937  -0.213334
    C   C24  0.574111  0.520997  0.606063  -0.213328
    C   C25  0.076962  0.000211  0.391740  -0.262610
    C   C26  0.923038  0.000211  0.608260  -0.262613
    C   C27  0.923038  0.999789  0.391740  -0.262613
    C   C28  0.076962  0.999789  0.608260  -0.262607
    C   C29  0.781113  0.782057  0.913160  -0.065588
    C   C30  0.218004  0.218617  0.087062  -0.069488
    C   C31  0.218887  0.217943  0.913160  -0.065572
    C   C32  0.781996  0.781383  0.087062  -0.069530
    C   C33  0.218887  0.782057  0.086840  -0.065592
    C   C34  0.781996  0.218617  0.912938  -0.069523
    C   C35  0.781113  0.217943  0.086840  -0.065584
    C   C36  0.218004  0.781383  0.912938  -0.069533
    C   C37  0.282276  0.281199  0.913273  -0.103699
    C   C38  0.718632  0.718112  0.087176  -0.090639
    C   C39  0.717724  0.718801  0.913273  -0.103726
    C   C40  0.281368  0.281888  0.087176  -0.090671
    C   C41  0.717724  0.281199  0.086727  -0.103725
    C   C42  0.281368  0.718112  0.912824  -0.090632
    C   C43  0.282276  0.718801  0.086727  -0.103723
    C   C44  0.718632  0.281888  0.912824  -0.090639
    H   H17  0.306633  0.304897  0.844389  0.104701
    H   H18  0.694967  0.693888  0.156126  0.100685
    H   H19  0.693367  0.695103  0.844389  0.104710
    H   H20  0.305033  0.306112  0.156126  0.100725
    H   H21  0.693367  0.304897  0.155611  0.104709
    H   H22  0.305033  0.693888  0.843874  0.100680
    H   H23  0.306633  0.695103  0.155611  0.104710
    H   H24  0.694967  0.306112  0.843874  0.100681
    H   H25  0.804738  0.806330  0.844210  0.090946
    H   H26  0.193660  0.194896  0.155941  0.092922
    H   H27  0.195262  0.193670  0.844210  0.090940
    H   H28  0.806340  0.805104  0.155941  0.092937
    H   H29  0.195262  0.806330  0.155790  0.090948
    H   H30  0.806340  0.194896  0.844059  0.092935
    H   H31  0.804738  0.193670  0.155790  0.090946
    H   H32  0.193660  0.805104  0.844059  0.092938
    C   C45  0.186421  0.186373  0.000063  -0.064091
    C   C46  0.813579  0.813627  0.000063  -0.064053
    C   C47  0.813579  0.186373  0.999937  -0.064064
    C   C48  0.186421  0.813627  0.999937  -0.064049
    C   C49  0.686193  0.686503  0.000285  -0.044951
    C   C50  0.313807  0.313497  0.000285  -0.044996
    C   C51  0.313807  0.686503  0.999715  -0.044959
    C   C52  0.686193  0.313497  0.999715  -0.044952
    N   N1   0.000000  0.000000  0.242454  -0.170641
    N   N2   0.000000  0.000000  0.757546  -0.170635
    N   N3   0.500000  0.500000  0.244208  -0.112010
    N   N4   0.500000  0.500000  0.755792  -0.112011
