# Generated by REPEAT Assigner based on pymatgen
data_DB0-m2_o1_o2_f0_nbo.sym.77
_audit_creation_date              2022-05-24
_audit_creation_method            REPEAT_Assigner
_cell_length_a                    21.557868
_cell_length_b                    21.557868
_cell_length_c                    30.028164
_cell_angle_alpha                 90.000000
_cell_angle_beta                  90.000000
_cell_angle_gamma                 90.000000
_cell_volume                      13955.339498
_symmetry_space_group_name_H-M    P1
_symmetry_Int_Tables_number       1
loop_
    _symmetry_equiv_pos_site_id
    _symmetry_equiv_pos_as_xyz
    1  x,y,z
loop_
    _atom_site_type_symbol
    _atom_site_label
    _atom_site_fract_x
    _atom_site_fract_y
    _atom_site_fract_z
    _atom_type_partial_charge
    O   O1    0.088380  0.449014  0.487369  -0.586125
    O   O2    0.449014  0.911620  0.487369  -0.586006
    O   O3    0.911620  0.550986  0.487369  -0.586112
    O   O4    0.550986  0.088380  0.487369  -0.586009
    O   O5    0.088380  0.550986  0.512631  -0.586111
    O   O6    0.449014  0.088380  0.512631  -0.586010
    O   O7    0.911620  0.449014  0.512631  -0.586126
    O   O8    0.550986  0.911620  0.512631  -0.586009
    O   O9    0.588380  0.949014  0.987369  -0.586110
    O   O10   0.949014  0.411620  0.987369  -0.586030
    O   O11   0.411620  0.050986  0.987369  -0.586114
    O   O12   0.050986  0.588380  0.987369  -0.585996
    O   O13   0.588380  0.050986  0.012631  -0.586116
    O   O14   0.949014  0.588380  0.012631  -0.586030
    O   O15   0.411620  0.949014  0.012631  -0.586112
    O   O16   0.050986  0.411620  0.012631  -0.585990
    C   C1    0.117543  0.500000  0.500000  0.718010
    C   C2    0.500000  0.882457  0.500000  0.718016
    C   C3    0.882457  0.500000  0.500000  0.718009
    C   C4    0.500000  0.117543  0.500000  0.718021
    C   C5    0.617543  0.000000  0.000000  0.717994
    C   C6    0.000000  0.382457  0.000000  0.718009
    C   C7    0.382457  0.000000  0.000000  0.717994
    C   C8    0.000000  0.617543  0.000000  0.718016
    O   O17   0.982370  0.449015  0.436590  -0.585575
    O   O18   0.449015  0.017630  0.436590  -0.585463
    O   O19   0.017630  0.550985  0.436590  -0.585568
    O   O20   0.550985  0.982370  0.436590  -0.585463
    O   O21   0.982370  0.550985  0.563410  -0.585560
    O   O22   0.449015  0.982370  0.563410  -0.585460
    O   O23   0.017630  0.449015  0.563410  -0.585571
    O   O24   0.550985  0.017630  0.563410  -0.585461
    O   O25   0.482370  0.949015  0.936590  -0.585563
    O   O26   0.949015  0.517630  0.936590  -0.585484
    O   O27   0.517630  0.050985  0.936590  -0.585568
    O   O28   0.050985  0.482370  0.936590  -0.585447
    O   O29   0.482370  0.050985  0.063410  -0.585572
    O   O30   0.949015  0.482370  0.063410  -0.585484
    O   O31   0.517630  0.949015  0.063410  -0.585568
    O   O32   0.050985  0.517630  0.063410  -0.585448
    C   C9    0.281733  0.547709  0.520849  0.148734
    C   C10   0.547709  0.718267  0.520849  0.148727
    C   C11   0.718267  0.452291  0.520849  0.148728
    C   C12   0.452291  0.281733  0.520849  0.148729
    C   C13   0.281733  0.452291  0.479151  0.148733
    C   C14   0.547709  0.281733  0.479151  0.148731
    C   C15   0.718267  0.547709  0.479151  0.148734
    C   C16   0.452291  0.718267  0.479151  0.148728
    C   C17   0.781733  0.047709  0.020849  0.148739
    C   C18   0.047709  0.218267  0.020849  0.148735
    C   C19   0.218267  0.952291  0.020849  0.148738
    C   C20   0.952291  0.781733  0.020849  0.148736
    C   C21   0.781733  0.952291  0.979151  0.148729
    C   C22   0.047709  0.781733  0.979151  0.148726
    C   C23   0.218267  0.047709  0.979151  0.148731
    C   C24   0.952291  0.218267  0.979151  0.148725
    C   C25   0.000000  0.500000  0.415656  0.652765
    C   C26   0.500000  0.000000  0.415656  0.652768
    C   C27   0.000000  0.500000  0.584344  0.652756
    C   C28   0.500000  0.000000  0.584344  0.652759
    C   C29   0.500000  0.000000  0.915656  0.652773
    C   C30   0.000000  0.500000  0.915656  0.652781
    C   C31   0.500000  0.000000  0.084344  0.652755
    C   C32   0.000000  0.500000  0.084344  0.652761
    Cu  Cu1   0.000000  0.439527  0.500000  0.936138
    Cu  Cu2   0.439527  0.000000  0.500000  0.936610
    Cu  Cu3   0.000000  0.560473  0.500000  0.936152
    Cu  Cu4   0.560473  0.000000  0.500000  0.936616
    Cu  Cu5   0.500000  0.939527  0.000000  0.936136
    Cu  Cu6   0.939527  0.500000  0.000000  0.936549
    Cu  Cu7   0.500000  0.060473  0.000000  0.936121
    Cu  Cu8   0.060473  0.500000  0.000000  0.936655
    C   C33   0.185532  0.500000  0.500000  -0.045660
    C   C34   0.500000  0.814468  0.500000  -0.045651
    C   C35   0.814468  0.500000  0.500000  -0.045660
    C   C36   0.500000  0.185532  0.500000  -0.045654
    C   C37   0.685532  0.000000  0.000000  -0.045652
    C   C38   0.000000  0.314468  0.000000  -0.045648
    C   C39   0.314468  0.000000  0.000000  -0.045655
    C   C40   0.000000  0.685532  0.000000  -0.045652
    C   C41   0.217730  0.547917  0.519668  -0.220509
    C   C42   0.547917  0.782270  0.519668  -0.220505
    C   C43   0.782270  0.452083  0.519668  -0.220507
    C   C44   0.452083  0.217730  0.519668  -0.220505
    C   C45   0.217730  0.452083  0.480332  -0.220511
    C   C46   0.547917  0.217730  0.480332  -0.220509
    C   C47   0.782270  0.547917  0.480332  -0.220511
    C   C48   0.452083  0.782270  0.480332  -0.220508
    C   C49   0.717730  0.047917  0.019668  -0.220516
    C   C50   0.047917  0.282270  0.019668  -0.220508
    C   C51   0.282270  0.952083  0.019668  -0.220513
    C   C52   0.952083  0.717730  0.019668  -0.220512
    C   C53   0.717730  0.952083  0.980332  -0.220514
    C   C54   0.047917  0.717730  0.980332  -0.220507
    C   C55   0.282270  0.047917  0.980332  -0.220513
    C   C56   0.952083  0.282270  0.980332  -0.220511
    C   C57   0.022912  0.550336  0.297707  -0.140349
    C   C58   0.550336  0.977088  0.297707  -0.140357
    C   C59   0.977088  0.449664  0.297707  -0.140349
    C   C60   0.449664  0.022912  0.297707  -0.140357
    C   C61   0.022912  0.449664  0.702293  -0.140354
    C   C62   0.550336  0.022912  0.702293  -0.140360
    C   C63   0.977088  0.550336  0.702293  -0.140352
    C   C64   0.449664  0.977088  0.702293  -0.140359
    C   C65   0.522912  0.050336  0.797707  -0.140348
    C   C66   0.050336  0.477088  0.797707  -0.140354
    C   C67   0.477088  0.949664  0.797707  -0.140349
    C   C68   0.949664  0.522912  0.797707  -0.140356
    C   C69   0.522912  0.949664  0.202293  -0.140352
    C   C70   0.050336  0.522912  0.202293  -0.140358
    C   C71   0.477088  0.050336  0.202293  -0.140352
    C   C72   0.949664  0.477088  0.202293  -0.140358
    H   H1    0.040004  0.590713  0.280274  0.111295
    H   H2    0.590713  0.959996  0.280274  0.111296
    H   H3    0.959996  0.409287  0.280274  0.111295
    H   H4    0.409287  0.040004  0.280274  0.111296
    H   H5    0.040004  0.409287  0.719726  0.111296
    H   H6    0.590713  0.040004  0.719726  0.111297
    H   H7    0.959996  0.590713  0.719726  0.111296
    H   H8    0.409287  0.959996  0.719726  0.111297
    H   H9    0.540004  0.090713  0.780274  0.111295
    H   H10   0.090713  0.459996  0.780274  0.111296
    H   H11   0.459996  0.909287  0.780274  0.111296
    H   H12   0.909287  0.540004  0.780274  0.111296
    H   H13   0.540004  0.909287  0.219726  0.111297
    H   H14   0.090713  0.540004  0.219726  0.111298
    H   H15   0.459996  0.090713  0.219726  0.111297
    H   H16   0.909287  0.459996  0.219726  0.111297
    C   C73   0.022671  0.550481  0.343606  -0.114317
    C   C74   0.550481  0.977329  0.343606  -0.114312
    C   C75   0.977329  0.449519  0.343606  -0.114317
    C   C76   0.449519  0.022671  0.343606  -0.114313
    C   C77   0.022671  0.449519  0.656394  -0.114309
    C   C78   0.550481  0.022671  0.656394  -0.114309
    C   C79   0.977329  0.550481  0.656394  -0.114311
    C   C80   0.449519  0.977329  0.656394  -0.114310
    C   C81   0.522671  0.050481  0.843606  -0.114315
    C   C82   0.050481  0.477329  0.843606  -0.114311
    C   C83   0.477329  0.949519  0.843606  -0.114314
    C   C84   0.949519  0.522671  0.843606  -0.114312
    C   C85   0.522671  0.949519  0.156394  -0.114316
    C   C86   0.050481  0.522671  0.156394  -0.114313
    C   C87   0.477329  0.050481  0.156394  -0.114316
    C   C88   0.949519  0.477329  0.156394  -0.114315
    H   H17   0.040586  0.590612  0.360894  0.125055
    H   H18   0.590612  0.959415  0.360894  0.125060
    H   H19   0.959415  0.409388  0.360894  0.125055
    H   H20   0.409388  0.040585  0.360894  0.125060
    H   H21   0.040585  0.409388  0.639106  0.125051
    H   H22   0.590612  0.040585  0.639106  0.125058
    H   H23   0.959415  0.590612  0.639106  0.125051
    H   H24   0.409388  0.959415  0.639106  0.125058
    H   H25   0.540585  0.090612  0.860894  0.125053
    H   H26   0.090612  0.459415  0.860894  0.125059
    H   H27   0.459415  0.909388  0.860894  0.125054
    H   H28   0.909388  0.540585  0.860894  0.125059
    H   H29   0.540585  0.909388  0.139106  0.125054
    H   H30   0.090612  0.540585  0.139106  0.125060
    H   H31   0.459415  0.090612  0.139106  0.125054
    H   H32   0.909388  0.459415  0.139106  0.125059
    C   C89   0.000000  0.500000  0.366840  -0.002974
    C   C90   0.500000  0.000000  0.366840  -0.002957
    C   C91   0.000000  0.500000  0.633160  -0.002976
    C   C92   0.500000  0.000000  0.633160  -0.002957
    C   C93   0.500000  0.000000  0.866840  -0.002988
    C   C94   0.000000  0.500000  0.866840  -0.002973
    C   C95   0.500000  0.000000  0.133160  -0.002973
    C   C96   0.000000  0.500000  0.133160  -0.002955
    H   H33   0.192974  0.586048  0.534766  0.140065
    H   H34   0.586048  0.807026  0.534766  0.140070
    H   H35   0.807026  0.413952  0.534766  0.140065
    H   H36   0.413952  0.192974  0.534766  0.140070
    H   H37   0.192974  0.413952  0.465234  0.140066
    H   H38   0.586048  0.192974  0.465234  0.140072
    H   H39   0.807026  0.586048  0.465234  0.140066
    H   H40   0.413952  0.807026  0.465234  0.140072
    H   H41   0.692974  0.086048  0.034766  0.140067
    H   H42   0.086048  0.307026  0.034766  0.140072
    H   H43   0.307026  0.913952  0.034766  0.140066
    H   H44   0.913952  0.692974  0.034766  0.140072
    H   H45   0.692974  0.913952  0.965234  0.140069
    H   H46   0.086048  0.692974  0.965234  0.140075
    H   H47   0.307026  0.086048  0.965234  0.140068
    H   H48   0.913952  0.307026  0.965234  0.140074
    C   C97   0.000000  0.500000  0.274446  0.091523
    C   C98   0.500000  0.000000  0.274446  0.091526
    C   C99   0.000000  0.500000  0.725554  0.091522
    C   C100  0.500000  0.000000  0.725554  0.091525
    C   C101  0.500000  0.000000  0.774446  0.091527
    C   C102  0.000000  0.500000  0.774446  0.091532
    C   C103  0.500000  0.000000  0.225554  0.091526
    C   C104  0.000000  0.500000  0.225554  0.091530
    O   O33   0.516504  0.411309  0.536830  -0.482053
    O   O34   0.411309  0.483496  0.536830  -0.482055
    O   O35   0.483496  0.588691  0.536830  -0.482057
    O   O36   0.588691  0.516504  0.536830  -0.482056
    O   O37   0.516504  0.588691  0.463170  -0.482044
    O   O38   0.411309  0.516504  0.463170  -0.482039
    O   O39   0.483496  0.411309  0.463170  -0.482043
    O   O40   0.588691  0.483496  0.463170  -0.482043
    O   O41   0.016504  0.911309  0.036830  -0.482071
    O   O42   0.911309  0.983496  0.036830  -0.482070
    O   O43   0.983496  0.088691  0.036830  -0.482071
    O   O44   0.088691  0.016504  0.036830  -0.482068
    O   O45   0.016504  0.088691  0.963170  -0.482022
    O   O46   0.911309  0.016504  0.963170  -0.482015
    O   O47   0.983496  0.911309  0.963170  -0.482024
    O   O48   0.088691  0.983496  0.963170  -0.482019
    C   C105  0.500000  0.382275  0.500000  0.601147
    C   C106  0.382275  0.500000  0.500000  0.601143
    C   C107  0.500000  0.617725  0.500000  0.601148
    C   C108  0.617725  0.500000  0.500000  0.601147
    C   C109  0.000000  0.882275  0.000000  0.601152
    C   C110  0.882275  0.000000  0.000000  0.601142
    C   C111  0.000000  0.117725  0.000000  0.601150
    C   C112  0.117725  0.000000  0.000000  0.601146
    C   C113  0.314335  0.500000  0.500000  -0.129017
    C   C114  0.500000  0.685665  0.500000  -0.129008
    C   C115  0.685665  0.500000  0.500000  -0.129017
    C   C116  0.500000  0.314335  0.500000  -0.129010
    C   C117  0.814335  0.000000  0.000000  -0.129012
    C   C118  0.000000  0.185665  0.000000  -0.129006
    C   C119  0.185665  0.000000  0.000000  -0.129013
    C   C120  0.000000  0.814335  0.000000  -0.129006
    Cu  Cu9   0.500000  0.500000  0.543577  0.819556
    Cu  Cu10  0.500000  0.500000  0.456423  0.819582
    Cu  Cu11  0.000000  0.000000  0.043577  0.819525
    Cu  Cu12  0.000000  0.000000  0.956423  0.819632
    C   C121  0.313333  0.601638  0.542898  -0.311203
    C   C122  0.302327  0.602229  0.593060  0.561481
    C   C123  0.333363  0.547078  0.615310  -0.384439
    C   C124  0.328967  0.661618  0.612286  -0.455951
    H   H49   0.293767  0.644737  0.528489  0.078507
    H   H50   0.363711  0.602834  0.536793  0.088447
    H   H51   0.251989  0.601000  0.600414  -0.077558
    H   H52   0.384071  0.548514  0.609299  0.077635
    H   H53   0.313941  0.502975  0.602447  0.060970
    H   H54   0.324884  0.549046  0.651697  0.069125
    H   H55   0.379390  0.664271  0.605190  0.108457
    H   H56   0.321525  0.662532  0.648815  0.097804
    H   H57   0.305389  0.702216  0.597202  0.074389
    C   C125  0.601638  0.686667  0.542898  -0.311207
    C   C126  0.602229  0.697673  0.593060  0.561483
    C   C127  0.547078  0.666637  0.615310  -0.384434
    C   C128  0.661618  0.671033  0.612286  -0.455950
    H   H58   0.644737  0.706233  0.528489  0.078507
    H   H59   0.602834  0.636289  0.536793  0.088449
    H   H60   0.601000  0.748011  0.600414  -0.077560
    H   H61   0.548514  0.615929  0.609299  0.077633
    H   H62   0.502975  0.686059  0.602447  0.060969
    H   H63   0.549046  0.675116  0.651697  0.069124
    H   H64   0.664271  0.620610  0.605190  0.108458
    H   H65   0.662532  0.678475  0.648815  0.097804
    H   H66   0.702216  0.694611  0.597202  0.074389
    C   C129  0.686667  0.398362  0.542898  -0.311190
    C   C130  0.697673  0.397771  0.593060  0.561479
    C   C131  0.666637  0.452922  0.615310  -0.384437
    C   C132  0.671033  0.338382  0.612286  -0.455951
    H   H67   0.706233  0.355264  0.528489  0.078505
    H   H68   0.636289  0.397166  0.536793  0.088442
    H   H69   0.748011  0.399000  0.600414  -0.077559
    H   H70   0.615929  0.451486  0.609299  0.077634
    H   H71   0.686059  0.497025  0.602447  0.060969
    H   H72   0.675116  0.450954  0.651697  0.069125
    H   H73   0.620610  0.335729  0.605190  0.108457
    H   H74   0.678475  0.337468  0.648815  0.097804
    H   H75   0.694611  0.297784  0.597202  0.074389
    C   C133  0.398362  0.313333  0.542898  -0.311205
    C   C134  0.397771  0.302327  0.593060  0.561475
    C   C135  0.452922  0.333363  0.615310  -0.384429
    C   C136  0.338382  0.328967  0.612286  -0.455946
    H   H76   0.355263  0.293767  0.528489  0.078507
    H   H77   0.397166  0.363711  0.536793  0.088448
    H   H78   0.399000  0.251989  0.600414  -0.077557
    H   H79   0.451487  0.384071  0.609299  0.077633
    H   H80   0.497025  0.313941  0.602447  0.060966
    H   H81   0.450954  0.324884  0.651697  0.069123
    H   H82   0.335729  0.379390  0.605190  0.108456
    H   H83   0.337468  0.321525  0.648815  0.097803
    H   H84   0.297784  0.305389  0.597202  0.074388
    C   C137  0.313333  0.398362  0.457102  -0.311199
    C   C138  0.302327  0.397771  0.406940  0.561472
    C   C139  0.333363  0.452922  0.384690  -0.384418
    C   C140  0.328967  0.338382  0.387714  -0.455947
    H   H85   0.293767  0.355263  0.471511  0.078507
    H   H86   0.363711  0.397166  0.463207  0.088444
    H   H87   0.251989  0.399000  0.399586  -0.077558
    H   H88   0.384071  0.451487  0.390701  0.077630
    H   H89   0.313941  0.497025  0.397553  0.060962
    H   H90   0.324884  0.450954  0.348304  0.069123
    H   H91   0.379390  0.335729  0.394810  0.108456
    H   H92   0.321525  0.337468  0.351185  0.097803
    H   H93   0.305389  0.297784  0.402798  0.074388
    C   C141  0.601638  0.313333  0.457102  -0.311208
    C   C142  0.602229  0.302327  0.406940  0.561478
    C   C143  0.547078  0.333363  0.384690  -0.384420
    C   C144  0.661618  0.328967  0.387714  -0.455946
    H   H94   0.644737  0.293767  0.471511  0.078508
    H   H95   0.602834  0.363711  0.463207  0.088448
    H   H96   0.601000  0.251989  0.399586  -0.077561
    H   H97   0.548514  0.384071  0.390701  0.077629
    H   H98   0.502975  0.313941  0.397553  0.060964
    H   H99   0.549046  0.324884  0.348304  0.069123
    H   H100  0.664271  0.379390  0.394810  0.108457
    H   H101  0.662532  0.321525  0.351185  0.097802
    H   H102  0.702216  0.305389  0.402798  0.074388
    C   C145  0.686667  0.601638  0.457102  -0.311205
    C   C146  0.697673  0.602229  0.406940  0.561479
    C   C147  0.666637  0.547078  0.384690  -0.384421
    C   C148  0.671033  0.661618  0.387714  -0.455949
    H   H103  0.706233  0.644737  0.471511  0.078508
    H   H104  0.636289  0.602834  0.463207  0.088446
    H   H105  0.748011  0.601000  0.399586  -0.077560
    H   H106  0.615929  0.548514  0.390701  0.077630
    H   H107  0.686059  0.502975  0.397553  0.060964
    H   H108  0.675116  0.549046  0.348304  0.069123
    H   H109  0.620610  0.664271  0.394810  0.108457
    H   H110  0.678475  0.662532  0.351185  0.097803
    H   H111  0.694611  0.702216  0.402798  0.074388
    C   C149  0.398362  0.686667  0.457102  -0.311204
    C   C150  0.397771  0.697673  0.406940  0.561477
    C   C151  0.452922  0.666637  0.384690  -0.384417
    C   C152  0.338382  0.671033  0.387714  -0.455947
    H   H112  0.355263  0.706233  0.471511  0.078507
    H   H113  0.397166  0.636289  0.463207  0.088445
    H   H114  0.399000  0.748011  0.399586  -0.077561
    H   H115  0.451486  0.615929  0.390701  0.077629
    H   H116  0.497025  0.686059  0.397553  0.060963
    H   H117  0.450954  0.675116  0.348304  0.069122
    H   H118  0.335729  0.620610  0.394810  0.108457
    H   H119  0.337468  0.678475  0.351185  0.097803
    H   H120  0.297784  0.694611  0.402798  0.074388
    C   C153  0.813333  0.101638  0.042898  -0.311204
    C   C154  0.802327  0.102229  0.093060  0.561470
    C   C155  0.833363  0.047078  0.115310  -0.384429
    C   C156  0.828967  0.161618  0.112286  -0.455944
    H   H121  0.793767  0.144737  0.028489  0.078509
    H   H122  0.863711  0.102834  0.036793  0.088446
    H   H123  0.751989  0.101000  0.100414  -0.077556
    H   H124  0.884071  0.048514  0.109299  0.077630
    H   H125  0.813941  0.002975  0.102447  0.060967
    H   H126  0.824884  0.049046  0.151697  0.069125
    H   H127  0.879390  0.164271  0.105190  0.108456
    H   H128  0.821525  0.162532  0.148815  0.097804
    H   H129  0.805389  0.202216  0.097202  0.074388
    C   C157  0.101638  0.186667  0.042898  -0.311210
    C   C158  0.102229  0.197673  0.093060  0.561470
    C   C159  0.047078  0.166637  0.115310  -0.384426
    C   C160  0.161618  0.171033  0.112286  -0.455944
    H   H130  0.144737  0.206233  0.028489  0.078511
    H   H131  0.102834  0.136289  0.036793  0.088448
    H   H132  0.101000  0.248011  0.100414  -0.077556
    H   H133  0.048514  0.115929  0.109299  0.077630
    H   H134  0.002975  0.186059  0.102447  0.060965
    H   H135  0.049046  0.175116  0.151697  0.069125
    H   H136  0.164271  0.120610  0.105190  0.108456
    H   H137  0.162532  0.178475  0.148815  0.097804
    H   H138  0.202216  0.194611  0.097202  0.074389
    C   C161  0.186667  0.898362  0.042898  -0.311204
    C   C162  0.197673  0.897771  0.093060  0.561471
    C   C163  0.166637  0.952922  0.115310  -0.384431
    C   C164  0.171033  0.838382  0.112286  -0.455945
    H   H139  0.206233  0.855263  0.028489  0.078510
    H   H140  0.136289  0.897166  0.036793  0.088446
    H   H141  0.248011  0.899000  0.100414  -0.077556
    H   H142  0.115929  0.951486  0.109299  0.077631
    H   H143  0.186059  0.997025  0.102447  0.060967
    H   H144  0.175116  0.950954  0.151697  0.069126
    H   H145  0.120610  0.835729  0.105190  0.108456
    H   H146  0.178475  0.837468  0.148815  0.097804
    H   H147  0.194611  0.797784  0.097202  0.074389
    C   C165  0.898362  0.813333  0.042898  -0.311209
    C   C166  0.897771  0.802327  0.093060  0.561473
    C   C167  0.952922  0.833363  0.115310  -0.384428
    C   C168  0.838382  0.828967  0.112286  -0.455945
    H   H148  0.855263  0.793767  0.028489  0.078509
    H   H149  0.897166  0.863711  0.036793  0.088447
    H   H150  0.899000  0.751989  0.100414  -0.077557
    H   H151  0.951486  0.884071  0.109299  0.077630
    H   H152  0.997025  0.813941  0.102447  0.060967
    H   H153  0.950954  0.824884  0.151697  0.069125
    H   H154  0.835729  0.879390  0.105190  0.108457
    H   H155  0.837468  0.821525  0.148815  0.097804
    H   H156  0.797784  0.805389  0.097202  0.074389
    C   C169  0.813333  0.898362  0.957102  -0.311192
    C   C170  0.802327  0.897771  0.906940  0.561468
    C   C171  0.833363  0.952922  0.884690  -0.384416
    C   C172  0.828967  0.838382  0.887714  -0.455944
    H   H157  0.793767  0.855263  0.971511  0.078504
    H   H158  0.863711  0.897166  0.963207  0.088443
    H   H159  0.751989  0.899000  0.899586  -0.077558
    H   H160  0.884071  0.951487  0.890701  0.077630
    H   H161  0.813941  0.997025  0.897553  0.060963
    H   H162  0.824884  0.950954  0.848304  0.069122
    H   H163  0.879390  0.835729  0.894810  0.108456
    H   H164  0.821525  0.837468  0.851185  0.097803
    H   H165  0.805389  0.797784  0.902798  0.074387
    C   C173  0.101638  0.813333  0.957102  -0.311203
    C   C174  0.102229  0.802327  0.906940  0.561476
    C   C175  0.047078  0.833363  0.884690  -0.384418
    C   C176  0.161618  0.828967  0.887714  -0.455945
    H   H166  0.144737  0.793767  0.971511  0.078505
    H   H167  0.102834  0.863711  0.963207  0.088446
    H   H168  0.101000  0.751989  0.899586  -0.077561
    H   H169  0.048514  0.884071  0.890701  0.077630
    H   H170  0.002975  0.813941  0.897553  0.060966
    H   H171  0.049046  0.824884  0.848304  0.069123
    H   H172  0.164271  0.879390  0.894810  0.108457
    H   H173  0.162532  0.821525  0.851185  0.097802
    H   H174  0.202216  0.805389  0.902798  0.074388
    C   C177  0.186667  0.101638  0.957102  -0.311199
    C   C178  0.197673  0.102229  0.906940  0.561476
    C   C179  0.166637  0.047078  0.884690  -0.384422
    C   C180  0.171033  0.161618  0.887714  -0.455948
    H   H175  0.206233  0.144737  0.971511  0.078504
    H   H176  0.136289  0.102834  0.963207  0.088445
    H   H177  0.248011  0.101000  0.899586  -0.077560
    H   H178  0.115929  0.048514  0.890701  0.077631
    H   H179  0.186059  0.002975  0.897553  0.060966
    H   H180  0.175116  0.049046  0.848304  0.069123
    H   H181  0.120610  0.164271  0.894810  0.108457
    H   H182  0.178475  0.162532  0.851185  0.097804
    H   H183  0.194611  0.202216  0.902798  0.074388
    C   C181  0.898362  0.186667  0.957102  -0.311200
    C   C182  0.897771  0.197673  0.906940  0.561479
    C   C183  0.952922  0.166637  0.884690  -0.384421
    C   C184  0.838382  0.171033  0.887714  -0.455950
    H   H184  0.855263  0.206233  0.971511  0.078504
    H   H185  0.897166  0.136289  0.963207  0.088444
    H   H186  0.899000  0.248011  0.899586  -0.077562
    H   H187  0.951486  0.115929  0.890701  0.077631
    H   H188  0.997025  0.186059  0.897553  0.060967
    H   H189  0.950954  0.175116  0.848304  0.069123
    H   H190  0.835729  0.120610  0.894810  0.108458
    H   H191  0.837468  0.178475  0.851185  0.097804
    H   H192  0.797784  0.194611  0.902798  0.074389
