# Generated by REPEAT Assigner based on pymatgen
data_DB0-m2_o1_o3_f0_nbo.sym.55
_audit_creation_date              2022-05-24
_audit_creation_method            REPEAT_Assigner
_cell_length_a                    21.460336
_cell_length_b                    21.460336
_cell_length_c                    38.842430
_cell_angle_alpha                 90.000000
_cell_angle_beta                  90.000000
_cell_angle_gamma                 90.000000
_cell_volume                      17888.725879
_symmetry_space_group_name_H-M    P1
_symmetry_Int_Tables_number       1
loop_
    _symmetry_equiv_pos_site_id
    _symmetry_equiv_pos_as_xyz
    1  x,y,z
loop_
    _atom_site_type_symbol
    _atom_site_label
    _atom_site_fract_x
    _atom_site_fract_y
    _atom_site_fract_z
    _atom_type_partial_charge
    O   O1    0.588839  0.051453  0.490537  -0.549445
    O   O2    0.948547  0.588839  0.490537  -0.549442
    O   O3    0.411161  0.948547  0.490537  -0.549418
    O   O4    0.051453  0.411161  0.490537  -0.549444
    O   O5    0.588839  0.948547  0.509463  -0.549447
    O   O6    0.948547  0.411161  0.509463  -0.549445
    O   O7    0.411161  0.051453  0.509463  -0.549442
    O   O8    0.051453  0.588839  0.509463  -0.549443
    O   O9    0.088839  0.551453  0.990537  -0.549493
    O   O10   0.448547  0.088839  0.990537  -0.549447
    O   O11   0.911161  0.448547  0.990537  -0.549417
    O   O12   0.551453  0.911161  0.990537  -0.549450
    O   O13   0.088839  0.448547  0.009463  -0.549455
    O   O14   0.448547  0.911161  0.009463  -0.549467
    O   O15   0.911161  0.551453  0.009463  -0.549476
    O   O16   0.551453  0.088839  0.009463  -0.549450
    C   C1    0.617918  0.000000  0.500000  0.449704
    C   C2    0.000000  0.617918  0.500000  0.449701
    C   C3    0.382082  0.000000  0.500000  0.449680
    C   C4    0.000000  0.382082  0.500000  0.449719
    C   C5    0.117918  0.500000  0.000000  0.449752
    C   C6    0.500000  0.117918  0.000000  0.449701
    C   C7    0.882082  0.500000  0.000000  0.449750
    C   C8    0.500000  0.882082  0.000000  0.449748
    O   O17   0.517404  0.051192  0.549154  -0.482792
    O   O18   0.948808  0.517404  0.549154  -0.482801
    O   O19   0.482596  0.948808  0.549154  -0.482817
    O   O20   0.051192  0.482596  0.549154  -0.482781
    O   O21   0.517404  0.948808  0.450846  -0.482776
    O   O22   0.948808  0.482596  0.450846  -0.482807
    O   O23   0.482596  0.051192  0.450846  -0.482767
    O   O24   0.051192  0.517404  0.450846  -0.482768
    O   O25   0.017404  0.551192  0.049154  -0.482811
    O   O26   0.448808  0.017404  0.049154  -0.482801
    O   O27   0.982596  0.448808  0.049154  -0.482794
    O   O28   0.551192  0.982596  0.049154  -0.482766
    O   O29   0.017404  0.448808  0.950846  -0.482752
    O   O30   0.448808  0.982596  0.950846  -0.482778
    O   O31   0.982596  0.551192  0.950846  -0.482784
    O   O32   0.551192  0.017404  0.950846  -0.482774
    C   C9    0.500000  0.000000  0.565488  0.725254
    C   C10   0.000000  0.500000  0.565488  0.725240
    C   C11   0.500000  0.000000  0.434512  0.725174
    C   C12   0.000000  0.500000  0.434512  0.725219
    C   C13   0.000000  0.500000  0.065488  0.725306
    C   C14   0.500000  0.000000  0.065488  0.725214
    C   C15   0.000000  0.500000  0.934512  0.725153
    C   C16   0.500000  0.000000  0.934512  0.725148
    Cu  Cu1   0.500000  0.060844  0.500000  0.916367
    Cu  Cu2   0.939156  0.500000  0.500000  0.916287
    Cu  Cu3   0.500000  0.939156  0.500000  0.916352
    Cu  Cu4   0.060844  0.500000  0.500000  0.916401
    Cu  Cu5   0.000000  0.560844  0.000000  0.916299
    Cu  Cu6   0.439156  0.000000  0.000000  0.916351
    Cu  Cu7   0.000000  0.439156  0.000000  0.916412
    Cu  Cu8   0.560844  0.000000  0.000000  0.916382
    C   C17   0.552042  0.979554  0.878025  0.353449
    C   C18   0.020446  0.552043  0.878025  0.353448
    C   C19   0.447957  0.020446  0.878025  0.353401
    C   C20   0.979554  0.447957  0.878025  0.353432
    C   C21   0.552042  0.020446  0.121975  0.353441
    C   C22   0.020446  0.447957  0.121975  0.353659
    C   C23   0.447957  0.979554  0.121975  0.353454
    C   C24   0.979554  0.552043  0.121975  0.353937
    C   C25   0.052043  0.479554  0.378025  0.353457
    C   C26   0.520446  0.052043  0.378025  0.353463
    C   C27   0.947957  0.520446  0.378025  0.353508
    C   C28   0.479554  0.947957  0.378025  0.353450
    C   C29   0.052042  0.520446  0.621975  0.353429
    C   C30   0.520446  0.947957  0.621975  0.353397
    C   C31   0.947957  0.479554  0.621975  0.353403
    C   C32   0.479554  0.052043  0.621975  0.353437
    C   C33   0.552248  0.982003  0.842524  -0.400309
    C   C34   0.017997  0.552248  0.842524  -0.400304
    C   C35   0.447752  0.017997  0.842524  -0.400269
    C   C36   0.982003  0.447752  0.842524  -0.400281
    C   C37   0.552248  0.017997  0.157476  -0.400302
    C   C38   0.017997  0.447752  0.157476  -0.400407
    C   C39   0.447752  0.982003  0.157476  -0.400295
    C   C40   0.982003  0.552248  0.157476  -0.400745
    C   C41   0.052248  0.482003  0.342524  -0.400182
    C   C42   0.517997  0.052248  0.342524  -0.400303
    C   C43   0.947752  0.517997  0.342524  -0.400235
    C   C44   0.482003  0.947752  0.342524  -0.400271
    C   C45   0.052248  0.517997  0.657476  -0.400259
    C   C46   0.517997  0.947752  0.657476  -0.400175
    C   C47   0.947752  0.482003  0.657476  -0.400176
    C   C48   0.482003  0.052248  0.657476  -0.400257
    H   H1    0.594596  0.969143  0.829392  0.170168
    H   H2    0.030857  0.594596  0.829392  0.170167
    H   H3    0.405404  0.030857  0.829392  0.170162
    H   H4    0.969143  0.405404  0.829392  0.170161
    H   H5    0.594596  0.030857  0.170608  0.170166
    H   H6    0.030857  0.405404  0.170608  0.170173
    H   H7    0.405404  0.969143  0.170608  0.170160
    H   H8    0.969143  0.594596  0.170608  0.170276
    H   H9    0.094596  0.469143  0.329392  0.170132
    H   H10   0.530857  0.094596  0.329392  0.170163
    H   H11   0.905404  0.530857  0.329392  0.170141
    H   H12   0.469143  0.905404  0.329392  0.170169
    H   H13   0.094596  0.530857  0.670608  0.170157
    H   H14   0.530857  0.905404  0.670608  0.170118
    H   H15   0.905404  0.469143  0.670608  0.170118
    H   H16   0.469143  0.094596  0.670608  0.170152
    C   C49   0.500000  0.000000  0.824265  0.173753
    C   C50   0.000000  0.500000  0.824265  0.173754
    C   C51   0.500000  0.000000  0.175735  0.173760
    C   C52   0.000000  0.500000  0.175735  0.173934
    C   C53   0.000000  0.500000  0.324265  0.173522
    C   C54   0.500000  0.000000  0.324265  0.173729
    C   C55   0.000000  0.500000  0.675735  0.173660
    C   C56   0.500000  0.000000  0.675735  0.173660
    C   C57   0.500000  0.000000  0.896446  -0.408735
    C   C58   0.000000  0.500000  0.896446  -0.408764
    C   C59   0.500000  0.000000  0.103554  -0.408788
    C   C60   0.000000  0.500000  0.103554  -0.409091
    C   C61   0.000000  0.500000  0.396446  -0.408817
    C   C62   0.500000  0.000000  0.396446  -0.408794
    C   C63   0.000000  0.500000  0.603554  -0.408790
    C   C64   0.500000  0.000000  0.603554  -0.408791
    C   C65   0.461453  0.039718  0.767734  -0.164315
    C   C66   0.960282  0.461454  0.767734  -0.164293
    C   C67   0.538546  0.960282  0.767734  -0.164283
    C   C68   0.039718  0.538546  0.767734  -0.164311
    C   C69   0.461454  0.960282  0.232266  -0.164302
    C   C70   0.960282  0.538546  0.232266  -0.164486
    C   C71   0.538546  0.039718  0.232266  -0.164320
    C   C72   0.039718  0.461454  0.232266  -0.164362
    C   C73   0.961453  0.539718  0.267734  -0.164099
    C   C74   0.460282  0.961454  0.267734  -0.164316
    C   C75   0.038546  0.460282  0.267734  -0.164371
    C   C76   0.539718  0.038546  0.267734  -0.164320
    C   C77   0.961454  0.460282  0.732266  -0.164342
    C   C78   0.460282  0.038546  0.732266  -0.164327
    C   C79   0.038546  0.539718  0.732266  -0.164343
    C   C80   0.539718  0.961454  0.732266  -0.164353
    H   H17   0.431747  0.073018  0.780500  0.117091
    H   H18   0.926982  0.431747  0.780500  0.117082
    H   H19   0.568253  0.926982  0.780500  0.117081
    H   H20   0.073018  0.568253  0.780500  0.117088
    H   H21   0.431747  0.926982  0.219500  0.117083
    H   H22   0.926982  0.568253  0.219500  0.117109
    H   H23   0.568253  0.073018  0.219500  0.117089
    H   H24   0.073018  0.431747  0.219500  0.117100
    H   H25   0.931747  0.573018  0.280500  0.117025
    H   H26   0.426982  0.931747  0.280500  0.117082
    H   H27   0.068253  0.426982  0.280500  0.117113
    H   H28   0.573018  0.068253  0.280500  0.117091
    H   H29   0.931747  0.426982  0.719500  0.117096
    H   H30   0.426982  0.068253  0.719500  0.117090
    H   H31   0.068253  0.573018  0.719500  0.117097
    H   H32   0.573018  0.931747  0.719500  0.117101
    C   C81   0.500000  0.000000  0.713918  0.116687
    C   C82   0.000000  0.500000  0.713918  0.116690
    C   C83   0.500000  0.000000  0.286082  0.116645
    C   C84   0.000000  0.500000  0.286082  0.116738
    C   C85   0.000000  0.500000  0.213918  0.116689
    C   C86   0.500000  0.000000  0.213918  0.116624
    C   C87   0.000000  0.500000  0.786082  0.116617
    C   C88   0.500000  0.000000  0.786082  0.116612
    C   C89   0.718062  0.948530  0.488307  -0.250680
    C   C90   0.051469  0.718062  0.488307  -0.250737
    C   C91   0.281938  0.051469  0.488307  -0.250717
    C   C92   0.948530  0.281938  0.488307  -0.250687
    C   C93   0.718062  0.051469  0.511693  -0.250731
    C   C94   0.051469  0.281938  0.511693  -0.250724
    C   C95   0.281938  0.948530  0.511693  -0.250700
    C   C96   0.948530  0.718062  0.511693  -0.250734
    C   C97   0.218062  0.448530  0.988307  -0.250705
    C   C98   0.551469  0.218062  0.988307  -0.250745
    C   C99   0.781938  0.551469  0.988307  -0.250670
    C   C100  0.448530  0.781938  0.988307  -0.250701
    C   C101  0.218062  0.551469  0.011693  -0.250735
    C   C102  0.551469  0.781938  0.011693  -0.250730
    C   C103  0.781938  0.448530  0.011693  -0.250663
    C   C104  0.448530  0.218062  0.011693  -0.250755
    H   H33   0.693125  0.908228  0.478885  0.151991
    H   H34   0.091772  0.693125  0.478885  0.152008
    H   H35   0.306875  0.091772  0.478885  0.152009
    H   H36   0.908228  0.306875  0.478885  0.151999
    H   H37   0.693125  0.091772  0.521115  0.152009
    H   H38   0.091772  0.306875  0.521115  0.152011
    H   H39   0.306875  0.908228  0.521115  0.152005
    H   H40   0.908228  0.693125  0.521115  0.152005
    H   H41   0.193125  0.408228  0.978885  0.152006
    H   H42   0.591772  0.193125  0.978885  0.152013
    H   H43   0.806875  0.591772  0.978885  0.152001
    H   H44   0.408228  0.806875  0.978885  0.152008
    H   H45   0.193125  0.591772  0.021115  0.152014
    H   H46   0.591772  0.806875  0.021115  0.152015
    H   H47   0.806875  0.408228  0.021115  0.151999
    H   H48   0.408228  0.193125  0.021115  0.152022
    C   C105  0.782269  0.949232  0.487415  -0.010295
    C   C106  0.050768  0.782269  0.487415  -0.010250
    C   C107  0.217731  0.050768  0.487415  -0.010274
    C   C108  0.949232  0.217731  0.487415  -0.010294
    C   C109  0.782269  0.050768  0.512585  -0.010254
    C   C110  0.050768  0.217731  0.512585  -0.010259
    C   C111  0.217731  0.949232  0.512585  -0.010283
    C   C112  0.949232  0.782269  0.512585  -0.010232
    C   C113  0.282269  0.449232  0.987415  -0.010292
    C   C114  0.550768  0.282269  0.987415  -0.010254
    C   C115  0.717731  0.550768  0.987415  -0.010321
    C   C116  0.449232  0.717731  0.987415  -0.010288
    C   C117  0.282269  0.550768  0.012585  -0.010261
    C   C118  0.550768  0.717731  0.012585  -0.010256
    C   C119  0.717731  0.449232  0.012585  -0.010309
    C   C120  0.449232  0.282269  0.012585  -0.010237
    H   H49   0.807280  0.909159  0.477751  0.101841
    H   H50   0.090841  0.807280  0.477751  0.101834
    H   H51   0.192720  0.090841  0.477751  0.101834
    H   H52   0.909159  0.192720  0.477751  0.101838
    H   H53   0.807280  0.090841  0.522249  0.101829
    H   H54   0.090841  0.192720  0.522249  0.101828
    H   H55   0.192720  0.909159  0.522249  0.101833
    H   H56   0.909159  0.807280  0.522249  0.101824
    H   H57   0.307280  0.409159  0.977751  0.101839
    H   H58   0.590841  0.307280  0.977751  0.101834
    H   H59   0.692720  0.590841  0.977751  0.101844
    H   H60   0.409159  0.692720  0.977751  0.101834
    H   H61   0.307280  0.590841  0.022249  0.101831
    H   H62   0.590841  0.692720  0.022249  0.101827
    H   H63   0.692720  0.409159  0.022249  0.101833
    H   H64   0.409159  0.307280  0.022249  0.101822
    C   C121  0.814426  0.000000  0.500000  -0.140011
    C   C122  0.000000  0.814426  0.500000  -0.140041
    C   C123  0.185574  0.000000  0.500000  -0.139978
    C   C124  0.000000  0.185574  0.500000  -0.139980
    C   C125  0.314426  0.500000  0.000000  -0.139979
    C   C126  0.500000  0.314426  0.000000  -0.140009
    C   C127  0.685574  0.500000  0.000000  -0.139941
    C   C128  0.500000  0.685574  0.000000  -0.139979
    C   C129  0.685876  0.000000  0.500000  0.244757
    C   C130  0.000000  0.685876  0.500000  0.244780
    C   C131  0.314124  0.000000  0.500000  0.244759
    C   C132  0.000000  0.314124  0.500000  0.244745
    C   C133  0.185876  0.500000  0.000000  0.244756
    C   C134  0.500000  0.185876  0.000000  0.244791
    C   C135  0.814124  0.500000  0.000000  0.244695
    C   C136  0.500000  0.814124  0.000000  0.244747
    O   O33   0.980392  0.088553  0.471987  -0.644649
    O   O34   0.911446  0.980392  0.471987  -0.644640
    O   O35   0.019608  0.911446  0.471987  -0.644642
    O   O36   0.088553  0.019608  0.471987  -0.644654
    O   O37   0.980392  0.911446  0.528013  -0.644632
    O   O38   0.911446  0.019608  0.528013  -0.644633
    O   O39   0.019608  0.088553  0.528013  -0.644644
    O   O40   0.088553  0.980392  0.528013  -0.644641
    O   O41   0.480392  0.588553  0.971987  -0.644664
    O   O42   0.411446  0.480392  0.971987  -0.644668
    O   O43   0.519608  0.411446  0.971987  -0.644672
    O   O44   0.588553  0.519608  0.971987  -0.644660
    O   O45   0.480392  0.411446  0.028013  -0.644646
    O   O46   0.411446  0.519608  0.028013  -0.644642
    O   O47   0.519608  0.588553  0.028013  -0.644640
    O   O48   0.588553  0.480392  0.028013  -0.644634
    C   C137  0.000000  0.117642  0.500000  0.819029
    C   C138  0.882358  0.000000  0.500000  0.819074
    C   C139  0.000000  0.882358  0.500000  0.819078
    C   C140  0.117642  0.000000  0.500000  0.819032
    C   C141  0.500000  0.617642  0.000000  0.819031
    C   C142  0.382358  0.500000  0.000000  0.819052
    C   C143  0.500000  0.382358  0.000000  0.819065
    C   C144  0.617642  0.500000  0.000000  0.819019
    Cu  Cu9   0.000000  0.000000  0.466633  1.000176
    Cu  Cu10  0.000000  0.000000  0.533367  1.000164
    Cu  Cu11  0.500000  0.500000  0.966633  1.000227
    Cu  Cu12  0.500000  0.500000  0.033367  1.000219
    C   C145  0.608102  0.951028  0.894724  -0.309484
    C   C146  0.659642  0.999135  0.897919  0.116515
    C   C147  0.710198  0.974801  0.921646  0.274672
    C   C148  0.762691  0.021813  0.923980  -0.310441
    H   H65   0.625075  0.912282  0.878332  0.075352
    H   H66   0.597028  0.929988  0.919988  0.058480
    H   H67   0.640575  0.043187  0.908422  -0.038963
    H   H68   0.679619  0.008401  0.872097  -0.018722
    H   H69   0.728613  0.930214  0.911414  -0.054245
    H   H70   0.690657  0.967049  0.947734  -0.067043
    H   H71   0.783071  0.029498  0.898091  0.059178
    H   H72   0.799258  0.003776  0.941517  0.062346
    H   H73   0.744578  0.066519  0.934224  0.061894
    C   C149  0.048972  0.608102  0.894724  -0.309446
    C   C150  0.000864  0.659642  0.897919  0.116474
    C   C151  0.025198  0.710198  0.921646  0.274594
    C   C152  0.978187  0.762691  0.923980  -0.310454
    H   H74   0.087718  0.625075  0.878332  0.075341
    H   H75   0.070012  0.597028  0.919988  0.058477
    H   H76   0.956813  0.640575  0.908422  -0.038950
    H   H77   0.991599  0.679619  0.872097  -0.018709
    H   H78   0.069785  0.728613  0.911414  -0.054198
    H   H79   0.032951  0.690657  0.947734  -0.067023
    H   H80   0.970502  0.783071  0.898091  0.059185
    H   H81   0.996223  0.799258  0.941517  0.062350
    H   H82   0.933481  0.744578  0.934224  0.061905
    C   C153  0.391898  0.048972  0.894724  -0.309426
    C   C154  0.340358  0.000864  0.897919  0.116463
    C   C155  0.289802  0.025198  0.921646  0.274881
    C   C156  0.237309  0.978187  0.923980  -0.310528
    H   H83   0.374924  0.087718  0.878332  0.075334
    H   H84   0.402972  0.070012  0.919988  0.058477
    H   H85   0.359425  0.956813  0.908422  -0.038958
    H   H86   0.320381  0.991599  0.872097  -0.018731
    H   H87   0.271387  0.069786  0.911414  -0.054285
    H   H88   0.309342  0.032951  0.947734  -0.067146
    H   H89   0.216929  0.970502  0.898091  0.059184
    H   H90   0.200741  0.996224  0.941517  0.062364
    H   H91   0.255422  0.933481  0.934224  0.061909
    C   C157  0.951028  0.391898  0.894724  -0.309455
    C   C158  0.999135  0.340358  0.897919  0.116522
    C   C159  0.974801  0.289802  0.921646  0.274838
    C   C160  0.021813  0.237309  0.923980  -0.310507
    H   H92   0.912282  0.374925  0.878332  0.075334
    H   H93   0.929988  0.402972  0.919988  0.058483
    H   H94   0.043187  0.359425  0.908422  -0.038972
    H   H95   0.008401  0.320381  0.872097  -0.018744
    H   H96   0.930214  0.271387  0.911414  -0.054279
    H   H97   0.967049  0.309342  0.947734  -0.067139
    H   H98   0.029498  0.216929  0.898091  0.059179
    H   H99   0.003776  0.200741  0.941517  0.062359
    H   H100  0.066518  0.255422  0.934224  0.061912
    C   C161  0.608102  0.048972  0.105276  -0.309446
    C   C162  0.659642  0.000864  0.102081  0.116508
    C   C163  0.710198  0.025198  0.078354  0.274577
    C   C164  0.762691  0.978187  0.076020  -0.310441
    H   H101  0.625075  0.087718  0.121668  0.075342
    H   H102  0.597028  0.070012  0.080012  0.058472
    H   H103  0.640575  0.956813  0.091578  -0.038959
    H   H104  0.679619  0.991599  0.127903  -0.018717
    H   H105  0.728613  0.069785  0.088587  -0.054197
    H   H106  0.690657  0.032951  0.052266  -0.067022
    H   H107  0.783071  0.970502  0.101909  0.059182
    H   H108  0.799258  0.996223  0.058483  0.062348
    H   H109  0.744578  0.933481  0.065776  0.061902
    C   C165  0.048972  0.391898  0.105276  -0.309574
    C   C166  0.000864  0.340358  0.102081  0.116522
    C   C167  0.025198  0.289802  0.078354  0.274826
    C   C168  0.978186  0.237309  0.076020  -0.310502
    H   H110  0.087718  0.374924  0.121668  0.075356
    H   H111  0.070012  0.402972  0.080012  0.058500
    H   H112  0.956813  0.359425  0.091578  -0.038962
    H   H113  0.991598  0.320381  0.127903  -0.018747
    H   H114  0.069785  0.271387  0.088586  -0.054268
    H   H115  0.032951  0.309342  0.052266  -0.067086
    H   H116  0.970502  0.216929  0.101909  0.059174
    H   H117  0.996223  0.200741  0.058483  0.062342
    H   H118  0.933481  0.255422  0.065776  0.061919
    C   C169  0.391898  0.951028  0.105276  -0.309475
    C   C170  0.340358  0.999136  0.102081  0.116447
    C   C171  0.289802  0.974801  0.078354  0.274714
    C   C172  0.237309  0.021813  0.076020  -0.310440
    H   H119  0.374925  0.912282  0.121668  0.075355
    H   H120  0.402972  0.929988  0.080012  0.058481
    H   H121  0.359425  0.043187  0.091578  -0.038946
    H   H122  0.320381  0.008401  0.127903  -0.018705
    H   H123  0.271387  0.930214  0.088586  -0.054252
    H   H124  0.309342  0.967049  0.052266  -0.067047
    H   H125  0.216929  0.029498  0.101909  0.059173
    H   H126  0.200741  0.003776  0.058483  0.062342
    H   H127  0.255422  0.066519  0.065776  0.061895
    C   C173  0.951028  0.608102  0.105276  -0.309757
    C   C174  0.999135  0.659642  0.102081  0.116579
    C   C175  0.974801  0.710198  0.078354  0.274680
    C   C176  0.021813  0.762691  0.076020  -0.310473
    H   H128  0.912282  0.625075  0.121668  0.075405
    H   H129  0.929988  0.597028  0.080012  0.058527
    H   H130  0.043187  0.640575  0.091578  -0.038982
    H   H131  0.008401  0.679619  0.127903  -0.018725
    H   H132  0.930214  0.728613  0.088586  -0.054241
    H   H133  0.967049  0.690658  0.052266  -0.067041
    H   H134  0.029498  0.783071  0.101909  0.059182
    H   H135  0.003776  0.799258  0.058483  0.062355
    H   H136  0.066519  0.744578  0.065776  0.061901
    C   C177  0.108102  0.451028  0.394724  -0.309498
    C   C178  0.159642  0.499135  0.397919  0.116471
    C   C179  0.210198  0.474801  0.421646  0.274713
    C   C180  0.262691  0.521813  0.423980  -0.310449
    H   H137  0.125075  0.412282  0.378332  0.075357
    H   H138  0.097028  0.429988  0.419988  0.058489
    H   H139  0.140575  0.543187  0.408422  -0.038960
    H   H140  0.179619  0.508401  0.372097  -0.018711
    H   H141  0.228613  0.430214  0.411414  -0.054252
    H   H142  0.190658  0.467049  0.447734  -0.067052
    H   H143  0.283071  0.529498  0.398091  0.059180
    H   H144  0.299258  0.503776  0.441517  0.062345
    H   H145  0.244578  0.566518  0.434224  0.061895
    C   C181  0.548972  0.108102  0.394724  -0.309449
    C   C182  0.500864  0.159642  0.397919  0.116474
    C   C183  0.525198  0.210198  0.421646  0.274598
    C   C184  0.478187  0.262691  0.423980  -0.310474
    H   H146  0.587717  0.125075  0.378332  0.075343
    H   H147  0.570012  0.097028  0.419988  0.058479
    H   H148  0.456813  0.140575  0.408422  -0.038949
    H   H149  0.491599  0.179619  0.372097  -0.018709
    H   H150  0.569786  0.228613  0.411414  -0.054197
    H   H151  0.532951  0.190657  0.447734  -0.067018
    H   H152  0.470502  0.283071  0.398091  0.059191
    H   H153  0.496224  0.299258  0.441517  0.062355
    H   H154  0.433481  0.244578  0.434224  0.061908
    C   C185  0.891898  0.548972  0.394724  -0.309544
    C   C186  0.840358  0.500864  0.397919  0.116548
    C   C187  0.789802  0.525199  0.421646  0.274818
    C   C188  0.737309  0.478187  0.423980  -0.310494
    H   H155  0.874924  0.587718  0.378332  0.075362
    H   H156  0.902972  0.570012  0.419988  0.058486
    H   H157  0.859424  0.456813  0.408422  -0.038969
    H   H158  0.820381  0.491599  0.372097  -0.018754
    H   H159  0.771387  0.569786  0.411414  -0.054263
    H   H160  0.809342  0.532951  0.447734  -0.067094
    H   H161  0.716929  0.470502  0.398091  0.059176
    H   H162  0.700741  0.496224  0.441517  0.062342
    H   H163  0.755422  0.433481  0.434224  0.061909
    C   C189  0.451028  0.891898  0.394724  -0.309488
    C   C190  0.499135  0.840358  0.397919  0.116528
    C   C191  0.474801  0.789802  0.421646  0.275075
    C   C192  0.521813  0.737309  0.423980  -0.310545
    H   H164  0.412282  0.874925  0.378332  0.075338
    H   H165  0.429988  0.902972  0.419988  0.058489
    H   H166  0.543187  0.859425  0.408422  -0.038981
    H   H167  0.508401  0.820381  0.372097  -0.018773
    H   H168  0.430214  0.771387  0.411414  -0.054346
    H   H169  0.467049  0.809342  0.447734  -0.067215
    H   H170  0.529497  0.716929  0.398091  0.059174
    H   H171  0.503776  0.700741  0.441517  0.062353
    H   H172  0.566518  0.755422  0.434224  0.061913
    C   C193  0.108102  0.548972  0.605276  -0.309443
    C   C194  0.159642  0.500864  0.602081  0.116473
    C   C195  0.210198  0.525198  0.578354  0.274602
    C   C196  0.262691  0.478187  0.576020  -0.310477
    H   H173  0.125075  0.587718  0.621668  0.075341
    H   H174  0.097028  0.570012  0.580012  0.058476
    H   H175  0.140575  0.456813  0.591578  -0.038946
    H   H176  0.179619  0.491599  0.627903  -0.018709
    H   H177  0.228613  0.569786  0.588586  -0.054197
    H   H178  0.190657  0.532951  0.552266  -0.067022
    H   H179  0.283071  0.470502  0.601909  0.059193
    H   H180  0.299258  0.496224  0.558483  0.062356
    H   H181  0.244578  0.433481  0.565776  0.061908
    C   C197  0.548972  0.891898  0.605276  -0.309457
    C   C198  0.500864  0.840358  0.602081  0.116459
    C   C199  0.525198  0.789802  0.578354  0.274846
    C   C200  0.478187  0.737309  0.576020  -0.310493
    H   H182  0.587717  0.874925  0.621668  0.075350
    H   H183  0.570011  0.902972  0.580012  0.058474
    H   H184  0.456813  0.859425  0.591578  -0.038952
    H   H185  0.491599  0.820381  0.627903  -0.018727
    H   H186  0.569785  0.771387  0.588586  -0.054272
    H   H187  0.532951  0.809342  0.552266  -0.067091
    H   H188  0.470502  0.716929  0.601909  0.059173
    H   H189  0.496224  0.700741  0.558483  0.062343
    H   H190  0.433481  0.755422  0.565776  0.061910
    C   C201  0.891898  0.451028  0.605276  -0.309483
    C   C202  0.840358  0.499136  0.602081  0.116457
    C   C203  0.789802  0.474801  0.578354  0.274936
    C   C204  0.737309  0.521813  0.576020  -0.310472
    H   H191  0.874925  0.412283  0.621668  0.075362
    H   H192  0.902972  0.429989  0.580012  0.058477
    H   H193  0.859425  0.543187  0.591578  -0.038958
    H   H194  0.820381  0.508401  0.627903  -0.018729
    H   H195  0.771387  0.430214  0.588586  -0.054317
    H   H196  0.809342  0.467049  0.552266  -0.067124
    H   H197  0.716929  0.529498  0.601909  0.059169
    H   H198  0.700741  0.503776  0.558483  0.062333
    H   H199  0.755422  0.566518  0.565776  0.061895
    C   C205  0.451028  0.108102  0.605276  -0.309467
    C   C206  0.499135  0.159642  0.602081  0.116467
    C   C207  0.474801  0.210198  0.578354  0.274706
    C   C208  0.521813  0.262691  0.576020  -0.310445
    H   H200  0.412282  0.125075  0.621668  0.075353
    H   H201  0.429988  0.097028  0.580012  0.058480
    H   H202  0.543187  0.140575  0.591578  -0.038955
    H   H203  0.508401  0.179619  0.627903  -0.018710
    H   H204  0.430214  0.228613  0.588586  -0.054251
    H   H205  0.467049  0.190658  0.552266  -0.067050
    H   H206  0.529498  0.283071  0.601909  0.059180
    H   H207  0.503776  0.299258  0.558483  0.062345
    H   H208  0.566518  0.244578  0.565776  0.061893
