# Generated by REPEAT Assigner based on pymatgen
data_DB0-m2_o1_o3_f0_nbo.sym.70
_audit_creation_date              2022-05-24
_audit_creation_method            REPEAT_Assigner
_cell_length_a                    21.452288
_cell_length_b                    21.452301
_cell_length_c                    38.629421
_cell_angle_alpha                 90.000000
_cell_angle_beta                  90.000000
_cell_angle_gamma                 90.000000
_cell_volume                      17777.296152
_symmetry_space_group_name_H-M    P1
_symmetry_Int_Tables_number       1
loop_
    _symmetry_equiv_pos_site_id
    _symmetry_equiv_pos_as_xyz
    1  x,y,z
loop_
    _atom_site_type_symbol
    _atom_site_label
    _atom_site_fract_x
    _atom_site_fract_y
    _atom_site_fract_z
    _atom_type_partial_charge
    O   O1    0.589021  0.051715  0.490956  -0.527372
    O   O2    0.948285  0.589021  0.490956  -0.527366
    O   O3    0.410979  0.948285  0.490956  -0.527360
    O   O4    0.051715  0.410979  0.490956  -0.527355
    O   O5    0.589021  0.948285  0.509045  -0.527347
    O   O6    0.948285  0.410979  0.509044  -0.527327
    O   O7    0.410979  0.051715  0.509045  -0.527360
    O   O8    0.051715  0.589021  0.509044  -0.527353
    O   O9    0.089021  0.551715  0.990956  -0.527340
    O   O10   0.448285  0.089021  0.990956  -0.527350
    O   O11   0.910979  0.448285  0.990956  -0.527339
    O   O12   0.551715  0.910979  0.990956  -0.527309
    O   O13   0.089021  0.448285  0.009044  -0.527338
    O   O14   0.448285  0.910979  0.009045  -0.527369
    O   O15   0.910979  0.551715  0.009044  -0.527348
    O   O16   0.551715  0.089021  0.009045  -0.527313
    C   C1    0.618019  0.000000  0.500000  0.511229
    C   C2    0.000000  0.618019  0.500000  0.511394
    C   C3    0.381981  0.000000  0.500000  0.511226
    C   C4    0.000000  0.381981  0.500000  0.511289
    C   C5    0.118019  0.500000  0.000000  0.511042
    C   C6    0.500000  0.118019  0.000000  0.511183
    C   C7    0.881981  0.500000  0.000000  0.511081
    C   C8    0.500000  0.881981  0.000000  0.511185
    O   O17   0.516557  0.051618  0.549534  -0.626542
    O   O18   0.948382  0.516557  0.549534  -0.626522
    O   O19   0.483443  0.948382  0.549534  -0.626534
    O   O20   0.051618  0.483443  0.549534  -0.626556
    O   O21   0.516557  0.948382  0.450467  -0.626558
    O   O22   0.948382  0.483443  0.450467  -0.626586
    O   O23   0.483443  0.051618  0.450467  -0.626568
    O   O24   0.051618  0.516557  0.450467  -0.626614
    O   O25   0.016557  0.551618  0.049534  -0.626616
    O   O26   0.448382  0.016557  0.049534  -0.626584
    O   O27   0.983443  0.448382  0.049534  -0.626607
    O   O28   0.551618  0.983443  0.049534  -0.626541
    O   O29   0.016557  0.448382  0.950467  -0.626595
    O   O30   0.448382  0.983443  0.950467  -0.626577
    O   O31   0.983443  0.551618  0.950467  -0.626623
    O   O32   0.551618  0.016557  0.950467  -0.626536
    C   C9    0.500000  0.000000  0.565723  0.872650
    C   C10   0.000000  0.500000  0.565723  0.872593
    C   C11   0.500000  0.000000  0.434278  0.872686
    C   C12   0.000000  0.500000  0.434277  0.872764
    C   C13   0.000000  0.500000  0.065723  0.872700
    C   C14   0.500000  0.000000  0.065723  0.872685
    C   C15   0.000000  0.500000  0.934277  0.872669
    C   C16   0.500000  0.000000  0.934278  0.872680
    Cu  Cu1   0.500000  0.061083  0.500000  0.929711
    Cu  Cu2   0.938917  0.500000  0.500000  0.929756
    Cu  Cu3   0.500000  0.938917  0.500000  0.929811
    Cu  Cu4   0.061083  0.500000  0.500000  0.929697
    Cu  Cu5   0.000000  0.561083  0.000000  0.929808
    Cu  Cu6   0.438917  0.000000  0.000000  0.929603
    Cu  Cu7   0.000000  0.438917  0.000000  0.929783
    Cu  Cu8   0.561083  0.000000  0.000000  0.929857
    C   C17   0.514413  0.946204  0.878294  0.131123
    C   C18   0.053797  0.514408  0.878294  0.130739
    C   C19   0.485587  0.053796  0.878294  0.131006
    C   C20   0.946203  0.485593  0.878294  0.130711
    C   C21   0.514412  0.053796  0.121707  0.131174
    C   C22   0.053797  0.485592  0.121707  0.130905
    C   C23   0.485588  0.946204  0.121707  0.131186
    C   C24   0.946203  0.514407  0.121707  0.130900
    C   C25   0.014422  0.446207  0.378294  0.131034
    C   C26   0.553795  0.014415  0.378294  0.131245
    C   C27   0.985578  0.553793  0.378294  0.131072
    C   C28   0.446205  0.985586  0.378294  0.131269
    C   C29   0.014422  0.553793  0.621706  0.131212
    C   C30   0.553795  0.985586  0.621707  0.131293
    C   C31   0.985578  0.446207  0.621706  0.131127
    C   C32   0.446205  0.014414  0.621707  0.131289
    C   C33   0.512590  0.946012  0.842606  -0.213630
    C   C34   0.053989  0.512585  0.842606  -0.213411
    C   C35   0.487410  0.053988  0.842606  -0.213558
    C   C36   0.946011  0.487416  0.842606  -0.213394
    C   C37   0.512589  0.053988  0.157395  -0.213665
    C   C38   0.053989  0.487416  0.157394  -0.213511
    C   C39   0.487411  0.946012  0.157395  -0.213675
    C   C40   0.946011  0.512584  0.157394  -0.213502
    C   C41   0.012599  0.446014  0.342606  -0.213505
    C   C42   0.553988  0.012592  0.342606  -0.213692
    C   C43   0.987401  0.553986  0.342606  -0.213507
    C   C44   0.446013  0.987408  0.342606  -0.213691
    C   C45   0.012599  0.553986  0.657394  -0.213626
    C   C46   0.553988  0.987409  0.657395  -0.213713
    C   C47   0.987401  0.446014  0.657394  -0.213626
    C   C48   0.446012  0.012591  0.657395  -0.213710
    H   H1    0.521957  0.902811  0.829269  0.116391
    H   H2    0.097191  0.521947  0.829269  0.116333
    H   H3    0.478043  0.097189  0.829269  0.116358
    H   H4    0.902809  0.478053  0.829269  0.116322
    H   H5    0.521956  0.097189  0.170731  0.116399
    H   H6    0.097191  0.478053  0.170731  0.116363
    H   H7    0.478044  0.902811  0.170731  0.116401
    H   H8    0.902809  0.521947  0.170731  0.116357
    H   H9    0.021973  0.402814  0.329269  0.116395
    H   H10   0.597188  0.021960  0.329269  0.116412
    H   H11   0.978027  0.597185  0.329269  0.116394
    H   H12   0.402812  0.978040  0.329269  0.116407
    H   H13   0.021973  0.597186  0.670731  0.116406
    H   H14   0.597189  0.978041  0.670731  0.116414
    H   H15   0.978027  0.402815  0.670731  0.116402
    H   H16   0.402812  0.021959  0.670731  0.116412
    C   C49   0.500000  0.000000  0.824359  0.048477
    C   C50   0.000000  0.500000  0.824359  0.048362
    C   C51   0.500000  0.000000  0.175642  0.048502
    C   C52   0.000000  0.500000  0.175642  0.048380
    C   C53   0.000000  0.500000  0.324359  0.048287
    C   C54   0.500000  0.000000  0.324359  0.048496
    C   C55   0.000000  0.500000  0.675641  0.048360
    C   C56   0.500000  0.000000  0.675642  0.048490
    C   C57   0.500000  0.000000  0.896417  -0.240700
    C   C58   0.000000  0.500000  0.896417  -0.240309
    C   C59   0.500000  0.000000  0.103584  -0.240794
    C   C60   0.000000  0.500000  0.103583  -0.240454
    C   C61   0.000000  0.500000  0.396417  -0.240449
    C   C62   0.500000  0.000000  0.396417  -0.240779
    C   C63   0.000000  0.500000  0.603583  -0.240570
    C   C64   0.500000  0.000000  0.603584  -0.240820
    C   C65   0.460468  0.038898  0.767836  -0.160517
    C   C66   0.961097  0.460473  0.767836  -0.160243
    C   C67   0.539532  0.961102  0.767836  -0.160523
    C   C68   0.038903  0.539527  0.767836  -0.160237
    C   C69   0.460468  0.961102  0.232164  -0.160528
    C   C70   0.961097  0.539527  0.232164  -0.160241
    C   C71   0.539532  0.038899  0.232164  -0.160530
    C   C72   0.038903  0.460473  0.232164  -0.160243
    C   C73   0.960462  0.538892  0.267836  -0.160888
    C   C74   0.461103  0.960467  0.267836  -0.160521
    C   C75   0.039538  0.461108  0.267836  -0.160891
    C   C76   0.538897  0.039533  0.267836  -0.160520
    C   C77   0.960462  0.461108  0.732164  -0.160861
    C   C78   0.461103  0.039533  0.732164  -0.160526
    C   C79   0.039538  0.538892  0.732164  -0.160881
    C   C80   0.538897  0.960467  0.732164  -0.160527
    H   H17   0.427753  0.068928  0.780976  0.117142
    H   H18   0.931063  0.427762  0.780975  0.117108
    H   H19   0.572247  0.931072  0.780976  0.117143
    H   H20   0.068937  0.572239  0.780975  0.117100
    H   H21   0.427754  0.931071  0.219025  0.117148
    H   H22   0.931063  0.572238  0.219025  0.117105
    H   H23   0.572246  0.068929  0.219025  0.117151
    H   H24   0.068937  0.427761  0.219025  0.117104
    H   H25   0.927743  0.568917  0.280976  0.117256
    H   H26   0.431074  0.927751  0.280976  0.117145
    H   H27   0.072257  0.431082  0.280976  0.117255
    H   H28   0.568926  0.072249  0.280976  0.117144
    H   H29   0.927743  0.431082  0.719025  0.117241
    H   H30   0.431073  0.072248  0.719025  0.117149
    H   H31   0.072257  0.568918  0.719025  0.117257
    H   H32   0.568927  0.927752  0.719025  0.117149
    C   C81   0.500000  0.000000  0.713870  0.130231
    C   C82   0.000000  0.500000  0.713869  0.130532
    C   C83   0.500000  0.000000  0.286131  0.130196
    C   C84   0.000000  0.500000  0.286131  0.130532
    C   C85   0.000000  0.500000  0.213870  0.130018
    C   C86   0.500000  0.000000  0.213870  0.130216
    C   C87   0.000000  0.500000  0.786131  0.129974
    C   C88   0.500000  0.000000  0.786131  0.130185
    C   C89   0.717884  0.952920  0.483528  0.063777
    C   C90   0.047078  0.717884  0.483526  0.063738
    C   C91   0.282116  0.047080  0.483528  0.063759
    C   C92   0.952922  0.282116  0.483526  0.063834
    C   C93   0.717884  0.047080  0.516472  0.063790
    C   C94   0.047078  0.282116  0.516474  0.063771
    C   C95   0.282116  0.952920  0.516472  0.063772
    C   C96   0.952922  0.717884  0.516474  0.063751
    C   C97   0.217885  0.452917  0.983530  0.064083
    C   C98   0.547081  0.217884  0.983529  0.063862
    C   C99   0.782116  0.547083  0.983530  0.064159
    C   C100  0.452919  0.782116  0.983529  0.063780
    C   C101  0.217885  0.547083  0.016470  0.064121
    C   C102  0.547082  0.782116  0.016471  0.063829
    C   C103  0.782116  0.452917  0.016470  0.064048
    C   C104  0.452919  0.217884  0.016471  0.063861
    H   H33   0.692779  0.916222  0.470375  0.040739
    H   H34   0.083774  0.692779  0.470371  0.040727
    H   H35   0.307221  0.083778  0.470375  0.040742
    H   H36   0.916226  0.307221  0.470371  0.040709
    H   H37   0.692779  0.083778  0.529626  0.040737
    H   H38   0.083774  0.307221  0.529630  0.040736
    H   H39   0.307221  0.916221  0.529626  0.040743
    H   H40   0.916226  0.692779  0.529630  0.040728
    H   H41   0.192779  0.416217  0.970379  0.040679
    H   H42   0.583780  0.192779  0.970376  0.040720
    H   H43   0.807221  0.583783  0.970379  0.040662
    H   H44   0.416220  0.807221  0.970376  0.040753
    H   H45   0.192779  0.583783  0.029622  0.040680
    H   H46   0.583781  0.807221  0.029624  0.040740
    H   H47   0.807221  0.416217  0.029621  0.040691
    H   H48   0.416220  0.192779  0.029624  0.040732
    C   C105  0.782055  0.954006  0.482570  -0.463117
    C   C106  0.045992  0.782055  0.482568  -0.463108
    C   C107  0.217945  0.045994  0.482570  -0.463053
    C   C108  0.954008  0.217945  0.482568  -0.463209
    C   C109  0.782055  0.045995  0.517430  -0.463123
    C   C110  0.045992  0.217945  0.517432  -0.463198
    C   C111  0.217945  0.954005  0.517430  -0.463115
    C   C112  0.954008  0.782055  0.517432  -0.463126
    C   C113  0.282056  0.454003  0.982572  -0.463618
    C   C114  0.545996  0.282056  0.982571  -0.463249
    C   C115  0.717945  0.545997  0.982572  -0.463625
    C   C116  0.454004  0.717944  0.982571  -0.463200
    C   C117  0.282056  0.545998  0.017428  -0.463725
    C   C118  0.545996  0.717944  0.017429  -0.463275
    C   C119  0.717945  0.454003  0.017428  -0.463605
    C   C120  0.454004  0.282056  0.017429  -0.463309
    H   H49   0.806861  0.917526  0.469084  0.268923
    H   H50   0.082469  0.806861  0.469080  0.268937
    H   H51   0.193139  0.082474  0.469084  0.268877
    H   H52   0.917531  0.193139  0.469080  0.268955
    H   H53   0.806861  0.082474  0.530916  0.268933
    H   H54   0.082469  0.193139  0.530920  0.268952
    H   H55   0.193139  0.917526  0.530916  0.268933
    H   H56   0.917531  0.806861  0.530920  0.268942
    H   H57   0.306861  0.417521  0.969088  0.268942
    H   H58   0.582476  0.306861  0.969086  0.268826
    H   H59   0.693139  0.582479  0.969088  0.268946
    H   H60   0.417524  0.693139  0.969086  0.268826
    H   H61   0.306861  0.582479  0.030912  0.268986
    H   H62   0.582476  0.693139  0.030915  0.268853
    H   H63   0.693139  0.417521  0.030912  0.268945
    H   H64   0.417524  0.306861  0.030915  0.268857
    C   C121  0.814264  0.000000  0.500000  0.388161
    C   C122  0.000000  0.814264  0.500000  0.388222
    C   C123  0.185736  0.000000  0.500000  0.388126
    C   C124  0.000000  0.185736  0.500000  0.388270
    C   C125  0.314264  0.500000  0.000000  0.389067
    C   C126  0.500000  0.314264  0.000000  0.388506
    C   C127  0.685736  0.500000  0.000000  0.388942
    C   C128  0.500000  0.685736  0.000000  0.388476
    C   C129  0.685821  0.000000  0.500000  0.121160
    C   C130  0.000000  0.685821  0.500000  0.121096
    C   C131  0.314179  0.000000  0.500000  0.121173
    C   C132  0.000000  0.314179  0.500000  0.121124
    C   C133  0.185821  0.500000  0.000000  0.121119
    C   C134  0.500000  0.185821  0.000000  0.121133
    C   C135  0.814179  0.500000  0.000000  0.121094
    C   C136  0.500000  0.814179  0.000000  0.121172
    O   O33   0.980628  0.088638  0.471797  -0.570952
    O   O34   0.911362  0.980628  0.471797  -0.570895
    O   O35   0.019372  0.911362  0.471797  -0.570934
    O   O36   0.088638  0.019372  0.471797  -0.570896
    O   O37   0.980628  0.911362  0.528204  -0.570941
    O   O38   0.911362  0.019372  0.528204  -0.570924
    O   O39   0.019372  0.088638  0.528204  -0.570977
    O   O40   0.088638  0.980628  0.528204  -0.570920
    O   O41   0.480628  0.588638  0.971797  -0.570653
    O   O42   0.411362  0.480628  0.971797  -0.570672
    O   O43   0.519372  0.411362  0.971797  -0.570657
    O   O44   0.588638  0.519372  0.971797  -0.570711
    O   O45   0.480628  0.411362  0.028204  -0.570705
    O   O46   0.411362  0.519372  0.028204  -0.570728
    O   O47   0.519373  0.588638  0.028204  -0.570717
    O   O48   0.588638  0.480628  0.028204  -0.570735
    C   C137  0.000000  0.117756  0.500000  0.590637
    C   C138  0.882244  0.000000  0.500000  0.590673
    C   C139  0.000000  0.882244  0.500000  0.590560
    C   C140  0.117756  0.000000  0.500000  0.590687
    C   C141  0.500000  0.617756  0.000000  0.590274
    C   C142  0.382245  0.500000  0.000000  0.590025
    C   C143  0.500000  0.382244  0.000000  0.590255
    C   C144  0.617756  0.500000  0.000000  0.590115
    Cu  Cu9   0.000000  0.000000  0.466427  0.907049
    Cu  Cu10  0.000000  0.000000  0.533573  0.907121
    Cu  Cu11  0.500000  0.500000  0.966427  0.906775
    Cu  Cu12  0.500000  0.500000  0.033573  0.906878
    C   C145  0.534189  0.889130  0.895848  0.003746
    C   C146  0.500979  0.834686  0.891084  -0.129227
    C   C147  0.524164  0.778895  0.903266  -0.126080
    C   C148  0.580954  0.777234  0.919915  0.183069
    Br  Br1   0.615642  0.699514  0.934062  -0.191542
    C   C149  0.613881  0.831576  0.925065  -0.227080
    C   C150  0.590778  0.887348  0.912848  -0.038753
    H   H65   0.457360  0.835442  0.877087  0.110749
    H   H66   0.498464  0.736227  0.899057  0.108945
    H   H67   0.658720  0.830213  0.937796  0.128377
    H   H68   0.618380  0.929220  0.915404  0.099282
    C   C151  0.110874  0.534179  0.895847  0.003915
    C   C152  0.165316  0.500968  0.891082  -0.129106
    C   C153  0.221108  0.524150  0.903263  -0.126022
    C   C154  0.222773  0.580940  0.919912  0.182503
    Br  Br2   0.300496  0.615625  0.934055  -0.191368
    C   C155  0.168433  0.613869  0.925063  -0.226585
    C   C156  0.112659  0.590769  0.912848  -0.038889
    H   H69   0.164556  0.457348  0.877085  0.110689
    H   H70   0.263775  0.498448  0.899053  0.108973
    H   H71   0.169799  0.658708  0.937794  0.128198
    H   H72   0.070788  0.618373  0.915404  0.099293
    C   C157  0.465812  0.110871  0.895848  0.003831
    C   C158  0.499021  0.165314  0.891084  -0.129112
    C   C159  0.475836  0.221105  0.903266  -0.126173
    C   C160  0.419046  0.222766  0.919915  0.183102
    Br  Br3   0.384359  0.300486  0.934061  -0.191538
    C   C161  0.386120  0.168424  0.925065  -0.227087
    C   C162  0.409222  0.112652  0.912848  -0.038817
    H   H73   0.542641  0.164558  0.877087  0.110706
    H   H74   0.501536  0.263773  0.899057  0.108964
    H   H75   0.341281  0.169787  0.937796  0.128374
    H   H76   0.381620  0.070780  0.915404  0.099305
    C   C163  0.889127  0.465821  0.895847  0.004016
    C   C164  0.834685  0.499033  0.891082  -0.129011
    C   C165  0.778892  0.475850  0.903263  -0.126294
    C   C166  0.777227  0.419060  0.919912  0.182711
    Br  Br4   0.699504  0.384375  0.934055  -0.191396
    C   C167  0.831567  0.386131  0.925063  -0.226587
    C   C168  0.887341  0.409231  0.912847  -0.039092
    H   H77   0.835444  0.542652  0.877085  0.110675
    H   H78   0.736225  0.501552  0.899053  0.109043
    H   H79   0.830202  0.341292  0.937794  0.128231
    H   H80   0.929212  0.381628  0.915404  0.099342
    C   C169  0.534188  0.110871  0.104153  0.003762
    C   C170  0.500978  0.165314  0.108917  -0.129263
    C   C171  0.524163  0.221105  0.096735  -0.126041
    C   C172  0.580953  0.222766  0.080086  0.183028
    Br  Br5   0.615640  0.300487  0.065939  -0.191539
    C   C173  0.613880  0.168425  0.074936  -0.227028
    C   C174  0.590777  0.112653  0.087153  -0.038786
    H   H81   0.457358  0.164557  0.122914  0.110756
    H   H82   0.498462  0.263773  0.100944  0.108941
    H   H83   0.658718  0.169788  0.062205  0.128360
    H   H84   0.618379  0.070780  0.084597  0.099287
    C   C175  0.110874  0.465821  0.104153  0.003900
    C   C176  0.165316  0.499033  0.108918  -0.129287
    C   C177  0.221108  0.475850  0.096737  -0.125869
    C   C178  0.222773  0.419060  0.080089  0.182404
    Br  Br6   0.300496  0.384375  0.065945  -0.191368
    C   C179  0.168433  0.386131  0.074937  -0.226486
    C   C180  0.112659  0.409231  0.087153  -0.038938
    H   H85   0.164556  0.542652  0.122915  0.110743
    H   H86   0.263775  0.501552  0.100947  0.108952
    H   H87   0.169799  0.341292  0.062207  0.128181
    H   H88   0.070788  0.381628  0.084596  0.099292
    C   C181  0.465813  0.889129  0.104153  0.003750
    C   C182  0.499022  0.834686  0.108917  -0.129250
    C   C183  0.475838  0.778895  0.096735  -0.126051
    C   C184  0.419048  0.777234  0.080086  0.183042
    Br  Br7   0.384360  0.699513  0.065939  -0.191547
    C   C185  0.386121  0.831575  0.074936  -0.227036
    C   C186  0.409223  0.887347  0.087153  -0.038785
    H   H89   0.542642  0.835443  0.122914  0.110752
    H   H90   0.501538  0.736227  0.100944  0.108943
    H   H91   0.341282  0.830212  0.062205  0.128362
    H   H92   0.381621  0.929220  0.084597  0.099287
    C   C187  0.889127  0.534179  0.104153  0.003901
    C   C188  0.834685  0.500967  0.108918  -0.129281
    C   C189  0.778892  0.524150  0.096737  -0.125865
    C   C190  0.777227  0.580940  0.080089  0.182415
    Br  Br8   0.699504  0.615625  0.065945  -0.191367
    C   C191  0.831567  0.613869  0.074937  -0.226515
    C   C192  0.887341  0.590768  0.087153  -0.038921
    H   H93   0.835444  0.457348  0.122915  0.110740
    H   H94   0.736225  0.498448  0.100947  0.108947
    H   H95   0.830201  0.658708  0.062207  0.128189
    H   H96   0.929212  0.618372  0.084596  0.099288
    C   C193  0.034206  0.389135  0.395848  0.003198
    C   C194  0.001002  0.334688  0.391087  -0.128790
    C   C195  0.024192  0.278901  0.403272  -0.126496
    C   C196  0.080981  0.277248  0.419921  0.183529
    Br  Br9   0.115674  0.199534  0.434074  -0.191670
    C   C197  0.113903  0.331594  0.425068  -0.227449
    C   C198  0.090796  0.387361  0.412848  -0.038370
    H   H97   0.957382  0.335438  0.377090  0.110650
    H   H98   0.998495  0.236230  0.399066  0.109043
    H   H99   0.158742  0.330237  0.437799  0.128455
    H   H100  0.118394  0.429237  0.415402  0.099215
    C   C199  0.610870  0.034192  0.395848  0.003550
    C   C200  0.665314  0.000983  0.391085  -0.129146
    C   C201  0.721104  0.024169  0.403267  -0.126053
    C   C202  0.722763  0.080959  0.419916  0.183079
    Br  Br10  0.800482  0.115648  0.434064  -0.191578
    C   C203  0.668421  0.113885  0.425065  -0.227098
    C   C204  0.612650  0.090781  0.412848  -0.038608
    H   H101  0.664559  0.957364  0.377087  0.110736
    H   H102  0.763773  0.998470  0.399059  0.108900
    H   H103  0.669782  0.158724  0.437797  0.128379
    H   H104  0.570776  0.118382  0.415404  0.099215
    C   C205  0.965794  0.610865  0.395848  0.003120
    C   C206  0.998998  0.665312  0.391087  -0.128737
    C   C207  0.975808  0.721099  0.403272  -0.126582
    C   C208  0.919019  0.722751  0.419921  0.183673
    Br  Br11  0.884326  0.800466  0.434074  -0.191740
    C   C209  0.886097  0.668406  0.425068  -0.227535
    C   C210  0.909204  0.612638  0.412848  -0.038323
    H   H105  0.042619  0.664562  0.377090  0.110642
    H   H106  0.001505  0.763770  0.399066  0.109066
    H   H107  0.841258  0.669762  0.437799  0.128480
    H   H108  0.881607  0.570763  0.415402  0.099213
    C   C211  0.389131  0.965808  0.395848  0.003538
    C   C212  0.334686  0.999017  0.391084  -0.129165
    C   C213  0.278896  0.975831  0.403267  -0.126029
    C   C214  0.277237  0.919041  0.419916  0.183068
    Br  Br12  0.199518  0.884353  0.434064  -0.191575
    C   C215  0.331579  0.886115  0.425065  -0.227088
    C   C216  0.387350  0.909219  0.412848  -0.038609
    H   H109  0.335442  0.042636  0.377087  0.110741
    H   H110  0.236227  0.001530  0.399059  0.108888
    H   H111  0.330218  0.841277  0.437796  0.128379
    H   H112  0.429224  0.881618  0.415404  0.099214
    C   C217  0.034206  0.610865  0.604152  0.003161
    C   C218  0.001001  0.665312  0.608913  -0.128756
    C   C219  0.024191  0.721099  0.596729  -0.126583
    C   C220  0.080981  0.722752  0.580079  0.183668
    Br  Br13  0.115674  0.800466  0.565926  -0.191733
    C   C221  0.113903  0.668407  0.574932  -0.227528
    C   C222  0.090796  0.612639  0.587152  -0.038375
    H   H113  0.957381  0.664562  0.622910  0.110648
    H   H114  0.998495  0.763770  0.600935  0.109068
    H   H115  0.158742  0.669763  0.562201  0.128480
    H   H116  0.118393  0.570763  0.584598  0.099229
    C   C223  0.610870  0.965809  0.604153  0.003549
    C   C224  0.665314  0.999018  0.608916  -0.129151
    C   C225  0.721104  0.975832  0.596734  -0.126043
    C   C226  0.722764  0.919042  0.580085  0.183054
    Br  Br14  0.800483  0.884354  0.565937  -0.191566
    C   C227  0.668422  0.886116  0.574935  -0.227078
    C   C228  0.612650  0.909220  0.587153  -0.038630
    H   H117  0.664558  0.042637  0.622914  0.110736
    H   H118  0.763773  0.001532  0.600942  0.108898
    H   H119  0.669783  0.841278  0.562204  0.128378
    H   H120  0.570777  0.881618  0.584597  0.099219
    C   C229  0.965795  0.389135  0.604152  0.003505
    C   C230  0.998999  0.334688  0.608913  -0.129061
    C   C231  0.975809  0.278901  0.596729  -0.126439
    C   C232  0.919019  0.277248  0.580079  0.183593
    Br  Br15  0.884326  0.199534  0.565926  -0.191723
    C   C233  0.886097  0.331593  0.574932  -0.227565
    C   C234  0.909204  0.387361  0.587152  -0.038404
    H   H121  0.042619  0.335438  0.622910  0.110711
    H   H122  0.001505  0.236230  0.600935  0.109057
    H   H123  0.841258  0.330237  0.562201  0.128508
    H   H124  0.881607  0.429237  0.584598  0.099198
    C   C235  0.389130  0.034191  0.604153  0.003568
    C   C236  0.334686  0.000982  0.608916  -0.129176
    C   C237  0.278896  0.024168  0.596734  -0.126018
    C   C238  0.277236  0.080957  0.580085  0.183045
    Br  Br16  0.199517  0.115646  0.565937  -0.191566
    C   C239  0.331578  0.113883  0.574935  -0.227065
    C   C240  0.387350  0.090780  0.587153  -0.038639
    H   H125  0.335442  0.957362  0.622914  0.110740
    H   H126  0.236227  0.998468  0.600942  0.108891
    H   H127  0.330217  0.158722  0.562204  0.128370
    H   H128  0.429223  0.118381  0.584597  0.099221
