# Generated by REPEAT Assigner based on pymatgen
data_DB0-m2_o1_o3_f0_nbo.sym.7
_audit_creation_date              2022-05-24
_audit_creation_method            REPEAT_Assigner
_cell_length_a                    21.494471
_cell_length_b                    21.494471
_cell_length_c                    38.471527
_cell_angle_alpha                 90.000000
_cell_angle_beta                  90.000000
_cell_angle_gamma                 90.000000
_cell_volume                      17774.317242
_symmetry_space_group_name_H-M    P1
_symmetry_Int_Tables_number       1
loop_
    _symmetry_equiv_pos_site_id
    _symmetry_equiv_pos_as_xyz
    1  x,y,z
loop_
    _atom_site_type_symbol
    _atom_site_label
    _atom_site_fract_x
    _atom_site_fract_y
    _atom_site_fract_z
    _atom_type_partial_charge
    O   O1    0.588387  0.050947  0.510390  -0.639032
    O   O2    0.949053  0.588387  0.510390  -0.639068
    O   O3    0.411613  0.949053  0.510390  -0.639051
    O   O4    0.050947  0.411613  0.510390  -0.639002
    O   O5    0.588387  0.949053  0.489610  -0.639057
    O   O6    0.949053  0.411613  0.489610  -0.639047
    O   O7    0.411613  0.050947  0.489610  -0.639031
    O   O8    0.050947  0.588387  0.489610  -0.639027
    O   O9    0.088387  0.550947  0.010390  -0.639036
    O   O10   0.449054  0.088387  0.010390  -0.639027
    O   O11   0.911613  0.449053  0.010390  -0.639028
    O   O12   0.550947  0.911613  0.010390  -0.639045
    O   O13   0.088387  0.449053  0.989610  -0.639031
    O   O14   0.449053  0.911613  0.989610  -0.639028
    O   O15   0.911613  0.550947  0.989610  -0.639042
    O   O16   0.550947  0.088387  0.989610  -0.639056
    C   C1    0.617492  0.000000  0.500000  0.753000
    C   C2    0.000000  0.617492  0.500000  0.753009
    C   C3    0.382508  0.000000  0.500000  0.753006
    C   C4    0.000000  0.382509  0.500000  0.752918
    C   C5    0.117492  0.500000  0.000000  0.752935
    C   C6    0.500000  0.117492  0.000000  0.752969
    C   C7    0.882509  0.500000  0.000000  0.752940
    C   C8    0.500000  0.882509  0.000000  0.752933
    O   O17   0.481424  0.050964  0.549488  -0.557994
    O   O18   0.949037  0.481424  0.549488  -0.558028
    O   O19   0.518576  0.949037  0.549488  -0.558007
    O   O20   0.050963  0.518576  0.549488  -0.557996
    O   O21   0.481424  0.949037  0.450512  -0.557978
    O   O22   0.949037  0.518576  0.450512  -0.558018
    O   O23   0.518576  0.050964  0.450512  -0.557953
    O   O24   0.050963  0.481424  0.450512  -0.557960
    O   O25   0.981424  0.550963  0.049488  -0.557972
    O   O26   0.449037  0.981424  0.049488  -0.557967
    O   O27   0.018576  0.449037  0.049488  -0.557973
    O   O28   0.550964  0.018576  0.049488  -0.557966
    O   O29   0.981424  0.449037  0.950512  -0.557969
    O   O30   0.449037  0.018576  0.950512  -0.557956
    O   O31   0.018576  0.550963  0.950512  -0.557975
    O   O32   0.550964  0.981424  0.950512  -0.557969
    C   C9    0.500000  0.000000  0.565705  0.740025
    C   C10   0.000000  0.500000  0.565705  0.740057
    C   C11   0.500000  0.000000  0.434295  0.739964
    C   C12   0.000000  0.500000  0.434295  0.740021
    C   C13   0.000000  0.500000  0.065705  0.740004
    C   C14   0.500000  0.000000  0.065705  0.739983
    C   C15   0.000000  0.500000  0.934295  0.739941
    C   C16   0.500000  0.000000  0.934295  0.739915
    Cu  Cu1   0.500000  0.060569  0.500000  0.940626
    Cu  Cu2   0.939431  0.500000  0.500000  0.940582
    Cu  Cu3   0.500000  0.939431  0.500000  0.940564
    Cu  Cu4   0.060569  0.500000  0.500000  0.940614
    Cu  Cu5   0.000000  0.560569  0.000000  0.940547
    Cu  Cu6   0.439431  0.000000  0.000000  0.940672
    Cu  Cu7   0.000000  0.439431  0.000000  0.940656
    Cu  Cu8   0.560569  0.000000  0.000000  0.940534
    C   C17   0.509262  0.945199  0.878439  0.442585
    C   C18   0.054801  0.509262  0.878439  0.442580
    C   C19   0.490738  0.054801  0.878439  0.442565
    C   C20   0.945199  0.490738  0.878439  0.442580
    C   C21   0.509262  0.054801  0.121561  0.442583
    C   C22   0.054801  0.490738  0.121561  0.442543
    C   C23   0.490738  0.945199  0.121561  0.442589
    C   C24   0.945199  0.509262  0.121561  0.442600
    C   C25   0.009262  0.445199  0.378439  0.442593
    C   C26   0.554801  0.009262  0.378439  0.442553
    C   C27   0.990738  0.554801  0.378439  0.442594
    C   C28   0.445199  0.990738  0.378439  0.442595
    C   C29   0.009262  0.554801  0.621561  0.442558
    C   C30   0.554801  0.990739  0.621561  0.442540
    C   C31   0.990738  0.445199  0.621561  0.442556
    C   C32   0.445199  0.009262  0.621561  0.442569
    C   C33   0.507925  0.945045  0.842586  -0.412892
    C   C34   0.054956  0.507925  0.842586  -0.412887
    C   C35   0.492075  0.054956  0.842586  -0.412917
    C   C36   0.945045  0.492075  0.842586  -0.412922
    C   C37   0.507925  0.054956  0.157414  -0.412877
    C   C38   0.054956  0.492075  0.157414  -0.412819
    C   C39   0.492076  0.945045  0.157414  -0.412902
    C   C40   0.945045  0.507925  0.157414  -0.412860
    C   C41   0.007925  0.445045  0.342586  -0.412879
    C   C42   0.554956  0.007925  0.342586  -0.412856
    C   C43   0.992075  0.554956  0.342586  -0.412906
    C   C44   0.445044  0.992075  0.342586  -0.412914
    C   C45   0.007925  0.554956  0.657414  -0.412826
    C   C46   0.554956  0.992076  0.657414  -0.412813
    C   C47   0.992075  0.445045  0.657414  -0.412820
    C   C48   0.445044  0.007925  0.657414  -0.412844
    H   H1    0.512013  0.901209  0.829041  0.178997
    H   H2    0.098791  0.512013  0.829041  0.179002
    H   H3    0.487987  0.098791  0.829041  0.179027
    H   H4    0.901209  0.487987  0.829041  0.179020
    H   H5    0.512013  0.098791  0.170959  0.179001
    H   H6    0.098791  0.487988  0.170959  0.178990
    H   H7    0.487988  0.901209  0.170959  0.179021
    H   H8    0.901209  0.512012  0.170959  0.178991
    H   H9    0.012013  0.401209  0.329041  0.178991
    H   H10   0.598791  0.012013  0.329041  0.178996
    H   H11   0.987987  0.598791  0.329041  0.179027
    H   H12   0.401209  0.987987  0.329041  0.179029
    H   H13   0.012012  0.598791  0.670959  0.178994
    H   H14   0.598791  0.987988  0.670959  0.178994
    H   H15   0.987988  0.401209  0.670959  0.178986
    H   H16   0.401209  0.012013  0.670959  0.179001
    C   C49   0.500000  0.000000  0.824387  0.143915
    C   C50   0.000000  0.500000  0.824387  0.143910
    C   C51   0.500000  0.000000  0.175613  0.143885
    C   C52   0.000000  0.500000  0.175613  0.143834
    C   C53   0.000000  0.500000  0.324387  0.143887
    C   C54   0.500000  0.000000  0.324387  0.143877
    C   C55   0.000000  0.500000  0.675613  0.143801
    C   C56   0.500000  0.000000  0.675613  0.143802
    C   C57   0.500000  0.000000  0.896385  -0.309427
    C   C58   0.000000  0.500000  0.896385  -0.309443
    C   C59   0.500000  0.000000  0.103615  -0.309474
    C   C60   0.000000  0.500000  0.103615  -0.309483
    C   C61   0.000000  0.500000  0.396385  -0.309493
    C   C62   0.500000  0.000000  0.396385  -0.309460
    C   C63   0.000000  0.500000  0.603615  -0.309474
    C   C64   0.500000  0.000000  0.603615  -0.309454
    C   C65   0.460756  0.039142  0.767911  -0.165836
    C   C66   0.960858  0.460756  0.767911  -0.165842
    C   C67   0.539245  0.960858  0.767911  -0.165789
    C   C68   0.039142  0.539245  0.767911  -0.165805
    C   C69   0.460756  0.960858  0.232089  -0.165891
    C   C70   0.960858  0.539244  0.232089  -0.165798
    C   C71   0.539245  0.039143  0.232089  -0.165842
    C   C72   0.039143  0.460756  0.232089  -0.165858
    C   C73   0.960755  0.539142  0.267911  -0.165908
    C   C74   0.460858  0.960756  0.267911  -0.165843
    C   C75   0.039245  0.460858  0.267911  -0.165817
    C   C76   0.539142  0.039245  0.267911  -0.165818
    C   C77   0.960756  0.460858  0.732089  -0.165866
    C   C78   0.460858  0.039245  0.732089  -0.165865
    C   C79   0.039244  0.539143  0.732089  -0.165870
    C   C80   0.539143  0.960756  0.732089  -0.165887
    H   H17   0.428705  0.069457  0.781357  0.119418
    H   H18   0.930543  0.428705  0.781357  0.119421
    H   H19   0.571295  0.930544  0.781357  0.119401
    H   H20   0.069457  0.571295  0.781357  0.119403
    H   H21   0.428705  0.930543  0.218643  0.119439
    H   H22   0.930543  0.571295  0.218643  0.119396
    H   H23   0.571295  0.069457  0.218643  0.119413
    H   H24   0.069457  0.428705  0.218643  0.119424
    H   H25   0.928705  0.569457  0.281357  0.119450
    H   H26   0.430543  0.928705  0.281357  0.119419
    H   H27   0.071295  0.430544  0.281357  0.119406
    H   H28   0.569457  0.071295  0.281357  0.119405
    H   H29   0.928705  0.430543  0.718643  0.119421
    H   H30   0.430543  0.071295  0.718643  0.119426
    H   H31   0.071295  0.569457  0.718643  0.119425
    H   H32   0.569457  0.928705  0.718643  0.119428
    C   C81   0.500000  0.000000  0.713854  0.134602
    C   C82   0.000000  0.500000  0.713854  0.134601
    C   C83   0.500000  0.000000  0.286146  0.134549
    C   C84   0.000000  0.500000  0.286146  0.134555
    C   C85   0.000000  0.500000  0.213854  0.134559
    C   C86   0.500000  0.000000  0.213854  0.134568
    C   C87   0.000000  0.500000  0.786146  0.134524
    C   C88   0.500000  0.000000  0.786146  0.134513
    C   C89   0.717723  0.961607  0.477585  -0.108416
    C   C90   0.038393  0.717723  0.477585  -0.108401
    C   C91   0.282277  0.038393  0.477585  -0.108319
    C   C92   0.961607  0.282277  0.477585  -0.108356
    C   C93   0.717723  0.038393  0.522415  -0.108459
    C   C94   0.038393  0.282277  0.522415  -0.108423
    C   C95   0.282277  0.961607  0.522415  -0.108383
    C   C96   0.961607  0.717723  0.522415  -0.108456
    C   C97   0.217723  0.461607  0.977585  -0.108386
    C   C98   0.538393  0.217723  0.977585  -0.108360
    C   C99   0.782277  0.538393  0.977585  -0.108352
    C   C100  0.461607  0.782277  0.977585  -0.108399
    C   C101  0.217723  0.538393  0.022415  -0.108416
    C   C102  0.538393  0.782277  0.022415  -0.108384
    C   C103  0.782277  0.461607  0.022415  -0.108369
    C   C104  0.461607  0.217723  0.022415  -0.108385
    H   H33   0.693137  0.931677  0.459674  0.110208
    H   H34   0.068323  0.693137  0.459674  0.110209
    H   H35   0.306863  0.068324  0.459674  0.110191
    H   H36   0.931677  0.306863  0.459674  0.110197
    H   H37   0.693137  0.068324  0.540326  0.110227
    H   H38   0.068323  0.306863  0.540326  0.110228
    H   H39   0.306863  0.931677  0.540326  0.110211
    H   H40   0.931677  0.693137  0.540326  0.110230
    H   H41   0.193137  0.431677  0.959674  0.110201
    H   H42   0.568324  0.193137  0.959674  0.110214
    H   H43   0.806863  0.568323  0.959674  0.110206
    H   H44   0.431677  0.806863  0.959674  0.110208
    H   H45   0.193137  0.568323  0.040326  0.110225
    H   H46   0.568323  0.806863  0.040326  0.110221
    H   H47   0.806863  0.431677  0.040326  0.110201
    H   H48   0.431677  0.193137  0.040326  0.110208
    C   C105  0.781838  0.962380  0.477171  -0.096859
    C   C106  0.037621  0.781839  0.477171  -0.096875
    C   C107  0.218161  0.037621  0.477171  -0.097004
    C   C108  0.962379  0.218162  0.477171  -0.097031
    C   C109  0.781838  0.037621  0.522829  -0.096764
    C   C110  0.037621  0.218162  0.522829  -0.097085
    C   C111  0.218161  0.962380  0.522829  -0.096949
    C   C112  0.962379  0.781839  0.522829  -0.096772
    C   C113  0.281839  0.462379  0.977171  -0.097005
    C   C114  0.537621  0.281839  0.977171  -0.097159
    C   C115  0.718162  0.537621  0.977171  -0.097149
    C   C116  0.462380  0.718162  0.977171  -0.097012
    C   C117  0.281839  0.537621  0.022829  -0.097078
    C   C118  0.537621  0.718162  0.022829  -0.097119
    C   C119  0.718162  0.462379  0.022829  -0.097039
    C   C120  0.462380  0.281839  0.022829  -0.097023
    H   H49   0.806316  0.932323  0.459285  0.118131
    H   H50   0.067678  0.806316  0.459285  0.118138
    H   H51   0.193684  0.067678  0.459285  0.118169
    H   H52   0.932322  0.193684  0.459285  0.118162
    H   H53   0.806316  0.067678  0.540716  0.118079
    H   H54   0.067678  0.193684  0.540716  0.118195
    H   H55   0.193684  0.932322  0.540716  0.118148
    H   H56   0.932322  0.806316  0.540716  0.118087
    H   H57   0.306316  0.432322  0.959285  0.118170
    H   H58   0.567678  0.306316  0.959285  0.118214
    H   H59   0.693684  0.567678  0.959285  0.118212
    H   H60   0.432323  0.693684  0.959285  0.118162
    H   H61   0.306316  0.567678  0.040716  0.118193
    H   H62   0.567678  0.693684  0.040715  0.118204
    H   H63   0.693684  0.432322  0.040716  0.118168
    H   H64   0.432322  0.306316  0.040716  0.118162
    C   C121  0.814153  0.000000  0.500000  -0.065512
    C   C122  0.000000  0.814153  0.500000  -0.065518
    C   C123  0.185847  0.000000  0.500000  -0.065271
    C   C124  0.000000  0.185848  0.500000  -0.065212
    C   C125  0.314153  0.500000  0.000000  -0.065264
    C   C126  0.500000  0.314153  0.000000  -0.065116
    C   C127  0.685848  0.500000  0.000000  -0.065141
    C   C128  0.500000  0.685847  0.000000  -0.065143
    C   C129  0.685466  0.000000  0.500000  0.062507
    C   C130  0.000000  0.685466  0.500000  0.062490
    C   C131  0.314534  0.000000  0.500000  0.062439
    C   C132  0.000000  0.314534  0.500000  0.062570
    C   C133  0.185466  0.500000  0.000000  0.062591
    C   C134  0.500000  0.185466  0.000000  0.062538
    C   C135  0.814534  0.500000  0.000000  0.062544
    C   C136  0.500000  0.814534  0.000000  0.062568
    O   O33   0.981338  0.088619  0.471591  -0.596634
    O   O34   0.911382  0.981338  0.471591  -0.596672
    O   O35   0.018662  0.911382  0.471591  -0.596626
    O   O36   0.088618  0.018663  0.471591  -0.596641
    O   O37   0.981338  0.911382  0.528409  -0.596643
    O   O38   0.911382  0.018663  0.528409  -0.596642
    O   O39   0.018662  0.088619  0.528409  -0.596595
    O   O40   0.088618  0.981338  0.528409  -0.596574
    O   O41   0.481338  0.588618  0.971591  -0.596604
    O   O42   0.411382  0.481338  0.971591  -0.596633
    O   O43   0.518663  0.411382  0.971591  -0.596603
    O   O44   0.588619  0.518662  0.971591  -0.596616
    O   O45   0.481338  0.411382  0.028409  -0.596642
    O   O46   0.411382  0.518662  0.028409  -0.596635
    O   O47   0.518663  0.588618  0.028409  -0.596661
    O   O48   0.588619  0.481338  0.028409  -0.596618
    C   C137  0.000000  0.117795  0.500000  0.722232
    C   C138  0.882205  0.000000  0.500000  0.722329
    C   C139  0.000000  0.882205  0.500000  0.722319
    C   C140  0.117795  0.000000  0.500000  0.722135
    C   C141  0.500000  0.617795  0.000000  0.722144
    C   C142  0.382205  0.500000  0.000000  0.722276
    C   C143  0.500000  0.382205  0.000000  0.722124
    C   C144  0.617795  0.500000  0.000000  0.722175
    Cu  Cu9   0.000000  0.000000  0.466236  0.939792
    Cu  Cu10  0.000000  0.000000  0.533764  0.939837
    Cu  Cu11  0.500000  0.500000  0.966236  0.939992
    Cu  Cu12  0.500000  0.500000  0.033764  0.939659
    O   O49   0.515055  0.890290  0.896146  -0.363023
    C   C145  0.578365  0.875838  0.895106  0.171661
    H   H65   0.606142  0.918656  0.890864  -0.011823
    H   H66   0.587377  0.842325  0.873777  0.002231
    H   H67   0.592283  0.854775  0.920248  0.013386
    O   O50   0.109711  0.515054  0.896146  -0.363027
    C   C146  0.124162  0.578365  0.895106  0.171686
    H   H68   0.081345  0.606142  0.890864  -0.011826
    H   H69   0.157675  0.587377  0.873777  0.002221
    H   H70   0.145225  0.592282  0.920248  0.013378
    O   O51   0.484946  0.109711  0.896146  -0.363033
    C   C147  0.421636  0.124162  0.895106  0.171764
    H   H71   0.393858  0.081345  0.890864  -0.011846
    H   H72   0.412623  0.157675  0.873777  0.002194
    H   H73   0.407718  0.145225  0.920248  0.013359
    O   O52   0.890290  0.484946  0.896146  -0.363024
    C   C148  0.875838  0.421635  0.895106  0.171680
    H   H74   0.918656  0.393858  0.890864  -0.011825
    H   H75   0.842325  0.412623  0.873777  0.002224
    H   H76   0.854775  0.407718  0.920248  0.013386
    O   O53   0.515054  0.109711  0.103854  -0.363025
    C   C149  0.578364  0.124162  0.104894  0.171700
    H   H77   0.606142  0.081345  0.109136  -0.011832
    H   H78   0.587377  0.157676  0.126223  0.002211
    H   H79   0.592282  0.145225  0.079752  0.013377
    O   O54   0.109711  0.484946  0.103854  -0.363041
    C   C150  0.124163  0.421636  0.104894  0.171810
    H   H80   0.081345  0.393859  0.109136  -0.011854
    H   H81   0.157676  0.412624  0.126223  0.002156
    H   H82   0.145226  0.407719  0.079752  0.013365
    O   O55   0.484946  0.890289  0.103854  -0.363061
    C   C151  0.421636  0.875838  0.104894  0.171826
    H   H83   0.393859  0.918655  0.109136  -0.011857
    H   H84   0.412624  0.842325  0.126223  0.002148
    H   H85   0.407719  0.854775  0.079752  0.013366
    O   O56   0.890290  0.515054  0.103854  -0.363036
    C   C152  0.875838  0.578364  0.104894  0.171691
    H   H86   0.918655  0.606142  0.109136  -0.011831
    H   H87   0.842325  0.587377  0.126223  0.002219
    H   H88   0.854775  0.592282  0.079752  0.013381
    O   O57   0.015054  0.390290  0.396146  -0.363020
    C   C153  0.078365  0.375838  0.395106  0.171647
    H   H89   0.106142  0.418656  0.390864  -0.011818
    H   H90   0.087377  0.342325  0.373777  0.002235
    H   H91   0.092282  0.354775  0.420248  0.013393
    O   O58   0.609711  0.015055  0.396146  -0.363014
    C   C154  0.624162  0.078365  0.395106  0.171694
    H   H92   0.581345  0.106142  0.390864  -0.011828
    H   H93   0.657675  0.087377  0.373777  0.002215
    H   H94   0.645225  0.092282  0.420248  0.013374
    O   O59   0.984946  0.609711  0.396146  -0.363067
    C   C155  0.921635  0.624162  0.395106  0.171815
    H   H95   0.893858  0.581345  0.390864  -0.011845
    H   H96   0.912623  0.657675  0.373777  0.002148
    H   H97   0.907718  0.645225  0.420248  0.013366
    O   O60   0.390289  0.984946  0.396146  -0.363039
    C   C156  0.375838  0.921636  0.395106  0.171724
    H   H98   0.418655  0.893858  0.390864  -0.011836
    H   H99   0.342325  0.912623  0.373777  0.002204
    H   H100  0.354775  0.907718  0.420248  0.013370
    O   O61   0.015054  0.609711  0.603854  -0.363054
    C   C157  0.078364  0.624162  0.604894  0.171814
    H   H101  0.106142  0.581345  0.609136  -0.011848
    H   H102  0.087377  0.657676  0.626223  0.002152
    H   H103  0.092282  0.645225  0.579752  0.013363
    O   O62   0.609711  0.984946  0.603854  -0.363044
    C   C158  0.624162  0.921636  0.604894  0.171772
    H   H104  0.581345  0.893859  0.609136  -0.011839
    H   H105  0.657676  0.912624  0.626223  0.002167
    H   H106  0.645225  0.907719  0.579752  0.013373
    O   O63   0.984946  0.390290  0.603854  -0.363050
    C   C159  0.921636  0.375838  0.604894  0.171825
    H   H107  0.893858  0.418655  0.609136  -0.011852
    H   H108  0.912623  0.342325  0.626223  0.002156
    H   H109  0.907718  0.354775  0.579752  0.013362
    O   O64   0.390289  0.015054  0.603854  -0.363054
    C   C160  0.375838  0.078364  0.604894  0.171801
    H   H110  0.418655  0.106142  0.609136  -0.011845
    H   H111  0.342324  0.087377  0.626223  0.002156
    H   H112  0.354775  0.092282  0.579752  0.013366
